0,   100.00          / PSS/E-30.3    MON, NOV 18 2013  18:10
AITYTFS Summer Night Valley 2019

    10,'F_M         ',  38.0000,1,     0.000,     0.000,   2,   1,1.03583, -12.2103,   2
    11,'FMN LOOP    ',  38.0000,1,     0.000,     0.000,   2,   1,1.03444, -11.4838,   2
    12,'BEDFORD     ',  38.0000,1,     0.000,     0.000,   1,   1,1.02696, -11.8240,   2
    13,'M_R         ',  38.0000,1,     0.000,     0.000,   1,   1,1.02986, -11.7412,   2
    14,'F_I         ',  38.0000,1,     0.000,     0.000,   2,   1,1.04754, -12.5186,   2
    15,'I_M         ',  38.0000,1,     0.000,     0.000,   2,   1,1.02357, -12.1879,   2
  1021,'ARDNACRU    ', 110.0000,1,     0.000,     0.000,   4,   1,1.00038,  -6.7843,   1
  1041,'AGHADA      ', 110.0000,1,     0.000,     0.000,   3,   1,0.99984,  -6.4679,   1
  1042,'AGHADA      ', 220.0000,1,     0.000,     0.000,   3,   1,1.00000,  -5.7478,   1
  1052,'AGHADA_B    ', 220.0000,1,     0.000,     0.000,   3,   1,0.99580,  -5.4253,   1
  1061,'ARIGNA      ', 110.0000,1,     0.000,     0.000,   9,   1,0.99901,  -5.1824,   2
  1062,'AGH_AT14    ', 220.0000,1,     0.000,     0.000,   3,   1,1.00000,  -5.7478,   1
  1071,'AGANNYGA    ', 110.0000,1,     0.000,     0.000,   4,   1,1.00229,  -4.7759,   1
  1072,'AGHT2102    ', 220.0000,1,     0.000,     0.000,   3,   1,1.00000,  -5.7514,   1
  1081,'AHANE       ', 110.0000,1,     0.000,     0.000,   7,   1,1.00215,  -6.7082,   2
  1091,'ADAMSTOW    ', 110.0000,1,     0.000,     0.000,   1,   1,0.99403, -12.3284,   2
  1101,'ANNER       ', 110.0000,1,     0.000,     0.000,   5,   1,0.99669,  -7.6909,   5
  1121,'ARKLOW      ', 110.0000,1,     0.000,     0.000,   6,   1,1.00768,  -8.8104,   1
  1122,'ARKLOW      ', 220.0000,1,     0.000,     0.000,   6,   1,1.00344,  -8.7326,   1
  1131,'ATHEA       ', 110.0000,1,     0.000,     0.000,   7,   1,0.99988,  -2.5124,   4
  1141,'ATHLONE     ', 110.0000,1,     0.000,     0.000,   9,   1,0.99704,  -6.1016,   1
  1151,'ATHEA-2     ', 110.0000,1,     0.000,     0.000,   7,   1,0.99988,  -2.5124,   1
  1161,'AUGHINIS    ', 110.0000,1,     0.000,     0.000,   7,   1,1.00000,  -5.5143,   1
  1181,'ARVA        ', 110.0000,1,     0.000,     0.000,  10,   1,0.99587,  -7.7552,   1
  1201,'ARTANE      ', 110.0000,1,     0.000,     0.000,   1,   1,1.01581, -10.5486,   2
  1211,'BALLYVOU    ', 110.0000,1,     0.000,     0.000,   3,   1,1.00089,  -2.7678,   1
  1212,'BALLYVOU    ', 220.0000,1,     0.000,     0.000,   3,   1,1.01061,  -3.8207,   1
  1221,'ATHY        ', 110.0000,1,     0.000,     0.000,   8,   1,1.01871,  -9.1085,   1
  1231,'BALLYWAT    ', 110.0000,1,     0.000,     0.000,   6,   1,1.00834,  -7.6638,   4
  1251,'BOOLTIAG    ', 110.0000,1,     0.000,     0.000,   4,   1,1.00919,  -5.9859,   2
  1271,'BALTRASN    ', 110.0000,1,     0.000,     0.000,  10,   1,1.00423, -10.3959,   1
  1281,'BALLYLIC    ', 110.0000,1,     0.000,     0.000,   3,   1,1.00000,  -5.2081,   2
  1301,'BALLYBEG    ', 110.0000,1,     0.000,     0.000,   6,   1,1.00424,  -9.2748,   1
  1311,'CORDAL      ', 110.0000,1,     0.000,     0.000,   3,   1,1.01999,  -2.8833,   1
  1321,'BLAKE       ', 110.0000,1,     0.000,     0.000,   8,   1,1.00098,  -9.6486,   2
  1341,'BINBANE     ', 110.0000,1,     0.000,     0.000,   9,   1,0.99454,  -3.2017,   2
  1351,'BARODA      ', 110.0000,1,     0.000,     0.000,   8,   1,0.99832,  -9.5946,   1
  1361,'BALLYDIN    ', 110.0000,1,     0.000,     0.000,   5,   1,0.99936,  -7.9510,   1
  1381,'BARNAHEL    ', 110.0000,1,     0.000,     0.000,   3,   1,0.99786,  -6.6151,   1
  1391,'BARNAHEL    ', 110.0000,1,     0.000,     0.000,   3,   1,0.99505,  -6.6985,   1
  1401,'BELLACOR    ', 110.0000,1,     0.000,     0.000,   9,   1,1.01294,  -4.9457,   1
  1421,'BLACKROC    ', 110.0000,1,     0.000,     0.000,   1,   1,1.00110, -10.5701,   2
  1431,'BALLYRAG    ', 110.0000,1,     0.000,     0.000,   6,   1,1.01377,  -9.3143,   1
  1441,'BANDON      ', 110.0000,1,     0.000,     0.000,   3,   1,0.99037,  -6.5939,   1
  1451,'CLOGHRAN    ', 110.0000,1,     0.000,     0.000,   1,   1,1.00201, -10.7472,   1
  1461,'BARRYMOR    ', 110.0000,1,     0.000,     0.000,   5,   1,0.99881,  -6.5622,   2
  1471,'BELCAMP     ', 110.0000,1,     0.000,     0.000,   1,   1,1.01759, -10.8399,   2
  1472,'BELCAMP     ', 220.0000,1,     0.000,     0.000,   1,   1,1.01370,  -9.6437,   2
  1481,'BUTLERST    ', 110.0000,1,     0.000,     0.000,   5,   1,1.00354,  -8.6362,   1
  1492,'BALLAKEL    ', 220.0000,1,     0.000,     0.000,  10,   1,1.01208,  -8.6304,   1
  1501,'BRINNY      ', 110.0000,1,     0.000,     0.000,   3,   1,0.99020,  -6.6039,   5
  1511,'KNOCKNAG    ', 110.0000,1,     0.000,     0.000,   7,   1,1.00000,  -2.1908,   1
  1541,'BANOGE      ', 110.0000,1,     0.000,     0.000,   6,   1,1.00675,  -8.4117,   1
  1551,'BOGGERAG    ', 110.0000,1,     0.000,     0.000,   3,   1,1.00000,  -1.4755,   1
  1571,'ARDNAGAP    ', 110.0000,1,     0.000,     0.000,   9,   1,0.99099,  -2.8090,   2
  1581,'CABRA       ', 110.0000,1,     0.000,     0.000,   1,   1,1.01569, -10.5629,   2
  1601,'CLASHAVO    ', 110.0000,1,     0.000,     0.000,   3,   1,1.00096,  -5.9987,   1
  1602,'CLASHAVO    ', 220.0000,1,     0.000,     0.000,   3,   1,1.00673,  -4.3086,   1
  1611,'CLONKEEN    ', 110.0000,1,     0.000,     0.000,   7,   1,1.00234,  -6.2073,   1
  1621,'COOLROE     ', 110.0000,1,     0.000,     0.000,   3,   1,0.99755,  -6.6709,   1
  1631,'CORDERRY    ', 110.0000,1,     0.000,     0.000,   9,   1,1.00155,  -4.5566,   1
  1641,'CASHLA      ', 110.0000,1,     0.000,     0.000,   9,   1,1.01639,  -5.9519,   1
  1642,'CASHLA      ', 220.0000,1,     0.000,     0.000,   9,   1,1.02144,  -6.1396,   1
  1651,'CLAHANE     ', 110.0000,1,     0.000,     0.000,   7,   1,1.00714,  -5.8477,   1
  1661,'CASTLEBA    ', 110.0000,1,     0.000,     0.000,   9,   1,1.03000,  -5.6751,   1
  1681,'CARRIGAD    ', 110.0000,1,     0.000,     0.000,   3,   1,0.99905,  -6.2066,   1
  1691,'CENTRAL     ', 110.0000,1,     0.000,     0.000,   1,   1,1.00121, -10.5222,   1
  1701,'CATH_FAL    ', 110.0000,1,     0.000,     0.000,   9,   1,0.99780,  -3.4044,   1
  1711,'CROMCAST    ', 110.0000,1,     0.000,     0.000,   1,   1,1.01733, -10.8862,   1
  1721,'CAHIR       ', 110.0000,1,     0.000,     0.000,   5,   1,0.99904,  -6.8347,   1
  1731,'CROMCAST    ', 110.0000,1,     0.000,     0.000,   1,   1,1.01733, -10.8862,   1
  1741,'CARRICKM    ', 110.0000,1,     0.000,     0.000,   2,   1,1.00096, -10.5012,   1
  1742,'CARRICKM    ', 220.0000,1,     0.000,     0.000,   2,   1,1.00022,  -9.2176,   1
  1761,'CLIFF       ', 110.0000,1,     0.000,     0.000,   9,   1,0.99782,  -3.4047,   1
  1781,'CASTLEFA    ', 110.0000,1,     0.000,     0.000,   7,   1,0.99962,  -5.5350,   5
  1791,'BRACKLON    ', 110.0000,1,     0.000,     0.000,   8,   1,1.00193,  -9.0434,   1
  1801,'COOKSTOW    ', 110.0000,1,     0.000,     0.000,   1,   1,0.99993,  -9.8427,   2
  1821,'CLOON       ', 110.0000,1,     0.000,     0.000,   9,   1,1.01495,  -5.9176,   1
  1831,'SCREEB      ', 110.0000,1,     0.000,     0.000,   9,   1,1.01489,  -6.1493,   2
  1841,'CRANE       ', 110.0000,1,     0.000,     0.000,   6,   1,1.00723,  -7.8821,   1
  1851,'CHERRYWO    ', 110.0000,1,     0.000,     0.000,   2,   1,0.99927, -10.6043,   1
  1861,'CARICKON    ', 110.0000,1,     0.000,     0.000,   9,   1,0.99995,  -6.1836,   1
  1871,'COLLEGE     ', 110.0000,1,     0.000,     0.000,   2,   1,1.00383, -10.5881,   1
  1881,'CHARLEVI    ', 110.0000,1,     0.000,     0.000,   3,   1,0.99673,  -7.0430,   1
  1891,'CAULSTOW    ', 110.0000,1,     0.000,     0.000,  10,   1,1.00291, -10.2667,   1
  1901,'CARLOW      ', 110.0000,1,     0.000,     0.000,   6,   1,1.02383,  -9.2744,   1
  1911,'CUILLEEN    ', 110.0000,1,     0.000,     0.000,   9,   1,0.99708,  -6.1026,   1
  1921,'COW CROS    ', 110.0000,1,     0.000,     0.000,   3,   1,0.99824,  -6.6419,   1
  1931,'CUNGHILL    ', 110.0000,1,     0.000,     0.000,   9,   1,1.00143,  -4.1812,   4
  1941,'CUSHALIN    ', 110.0000,1,     0.000,     0.000,   8,   1,1.00000,  -6.9684,   1
  1951,'CARROWBE    ', 110.0000,1,     0.000,     0.000,   9,   1,1.02863,  -6.0375,   1
  1961,'CASTLEVI    ', 110.0000,1,     0.000,     0.000,   3,   1,0.99830,  -6.7119,   1
  1971,'COOMAGEA    ', 110.0000,1,     0.000,     0.000,   7,   1,1.00000,  -1.2344,   4
  1981,'CORRACL     ', 110.0000,1,     0.000,     0.000,   9,  19,0.98905,  -6.7423,   1
  1991,'CASTLEDO    ', 110.0000,1,     0.000,     0.000,   6,   1,1.00587,  -7.6068,   1
  2001,'CULLENAG    ', 110.0000,1,     0.000,     0.000,   5,   1,1.00375,  -8.3965,   1
  2002,'CULLENAG    ', 220.0000,1,     0.000,     0.000,   5,   1,1.00517,  -7.9479,   1
  2011,'KNOCKNAG    ', 110.0000,1,     0.000,     0.000,   3,   1,0.99905,  -6.2066,   1
  2021,'CITY WES    ', 110.0000,1,     0.000,     0.000,   1,   1,0.99196, -12.6098,   2
  2041,'CORDUFF     ', 110.0000,1,     0.000,     0.000,   2,   1,1.00411, -10.5335,   1
  2042,'CORDUFF     ', 220.0000,1,     0.000,     0.000,   2,   1,1.01136,  -9.5050,   1
  2051,'BLACKPOO    ', 110.0000,1,     0.000,     0.000,   3,   1,0.99707,  -6.8689,   1
  2052,'CORDUFFB    ', 220.0000,1,     0.000,     0.000,   2,   1,1.01136,  -9.5050,   1
  2081,'DUNKETTL    ', 110.0000,4,     0.000,     0.000,   3,   1,1.00000,   0.0000,   5
  2090,'WEST GAL    ', 110.0000,1,     0.000,     0.000,   9,   1,1.00601,  -4.3761,   1
  2091,'WEST GAL    ', 110.0000,1,     0.000,     0.000,   9,   1,1.01663,  -5.9794,   1
  2101,'DUNDALK     ', 110.0000,1,     0.000,     0.000,  10,   1,1.01653,  -9.4109,   2
  2111,'UGOOL       ', 110.0000,1,     0.000,     0.000,   9,   1,1.00000,  -3.6297,   1
  2121,'DRUMLINE    ', 110.0000,1,     0.000,     0.000,   4,   1,0.99983,  -6.6891,   1
  2131,'DROMADA     ', 110.0000,1,     0.000,     0.000,   3,   1,1.00000,  -2.4139,   1
  2141,'DUNGARVA    ', 110.0000,1,     0.000,     0.000,   5,   1,1.00152,  -8.1489,   1
  2161,'DOON        ', 110.0000,1,     0.000,     0.000,   5,   1,0.99745,  -7.6579,   1
  2181,'DRYBRIDG    ', 110.0000,1,     0.000,     0.000,  10,   1,1.00529, -10.1102,   1
  2202,'DUNSTOWN    ', 220.0000,1,     0.000,     0.000,   2,   1,1.00872,  -9.7538,   1
  2204,'DUNSTOWN    ', 380.0000,1,     0.000,     0.000,   2,   1,1.02051,  -8.2976,   1
  2221,'DUNMANWA    ', 110.0000,1,     0.000,     0.000,   3,   1,0.99528,  -5.8907,   1
  2231,'DERRYBRI    ', 110.0000,1,     0.000,     0.000,   4,   1,1.00284,  -4.3237,   2
  2241,'DALLOW      ', 110.0000,1,     0.000,     0.000,   5,   1,1.00051,  -6.2881,   2
  2251,'DARDISTO    ', 110.0000,1,     0.000,     0.000,   1,   1,1.01739, -10.8858,   2
  2261,'DERRYIRO    ', 110.0000,1,     0.000,     0.000,   8,   1,0.99803,  -9.0482,   1
  2281,'DALTON      ', 110.0000,1,     0.000,     0.000,   9,   1,1.02698,  -5.5476,   1
  2301,'DUNFIRTH    ', 110.0000,1,     0.000,     0.000,   8,   1,1.00092,  -9.9005,   2
  2321,'DRUMKEEN    ', 110.0000,1,     0.000,     0.000,   9,   1,1.00437,  -1.3797,   1
  2361,'ENNIS       ', 110.0000,1,     0.000,     0.000,   4,   1,1.00249,  -6.2719,   1
  2391,'KILL HIL    ', 110.0000,1,     0.000,     0.000,   5,   1,1.00080,  -5.8472,   1
  2401,'MOUNTLUC    ', 110.0000,1,     0.000,     0.000,   8,   1,1.00000,  -7.0855,   1
  2411,'KNOCKMUL    ', 110.0000,1,     0.000,     0.000,   6,   1,1.00434,  -8.7130,   1
  2481,'FASS EAS    ', 110.0000,1,     0.000,     0.000,   2,   1,0.99809,  -9.8837,   2
  2491,'FASS WES    ', 110.0000,1,     0.000,     0.000,   2,   1,0.99816,  -9.8790,   2
  2521,'FLAGFORD    ', 110.0000,1,     0.000,     0.000,   9,   1,1.00022,  -6.1799,   1
  2522,'FLAGFORD    ', 220.0000,1,     0.000,     0.000,   9,   1,1.01320,  -6.4358,   1
  2541,'FRN ST A    ', 110.0000,1,     0.000,     0.000,   1,   1,1.00642, -10.0526,   2
  2551,'FRN ST B    ', 110.0000,1,     0.000,     0.000,   1,   1,1.00701, -11.0657,   2
  2561,'FIN_URBA    ', 110.0000,1,     0.000,     0.000,   2,   1,1.01587, -10.4863,   2
  2562,'FINGLAS     ', 220.0000,1,     0.000,     0.000,   2,   1,1.01191,  -9.5092,   1
  2563,'FINGLAS2    ', 220.0000,1,     0.000,     0.000,   2,   1,1.01191,  -9.5092,   1
  2571,'FIN_RURA    ', 110.0000,1,     0.000,     0.000,   2,   1,1.01727, -10.7957,   2
  2581,'KILDONAN    ', 110.0000,1,     0.000,     0.000,   2,   1,1.00321, -10.6628,   2
  2671,'GARVAGH     ', 110.0000,1,     0.000,     0.000,   9,   1,1.00100,  -4.2981,   4
  2681,'GILRA       ', 110.0000,1,     0.000,     0.000,   9,   1,0.99726,  -6.3670,   2
  2701,'GLASMORE    ', 110.0000,1,     0.000,     0.000,   1,   1,1.01488, -11.2799,   2
  2721,'GRIFFINR    ', 110.0000,1,     0.000,     0.000,   2,   1,1.00055, -10.1932,   2
  2731,'GLANLEE     ', 110.0000,1,     0.000,     0.000,   7,   1,0.99983,  -1.2119,   4
  2741,'GREAT IS    ', 110.0000,1,     0.000,     0.000,   6,   1,1.00561,  -8.5992,   1
  2742,'GREAT IS    ', 220.0000,1,     0.000,     0.000,   6,   1,1.00613,  -8.2762,   1
  2761,'GRANGE      ', 110.0000,1,     0.000,     0.000,   1,   1,1.01727, -10.8939,   2
  2771,'GARROW      ', 110.0000,1,     0.000,     0.000,   7,   1,1.00000,  -1.9937,   7
  2780,'GALWAY      ', 110.0000,1,     0.000,     0.000,   9,   1,1.01543,  -5.8048,   1
  2781,'GALWAY      ', 110.0000,1,     0.000,     0.000,   9,   1,1.01543,  -5.8048,   1
  2801,'GOLAGH      ', 110.0000,1,     0.000,     0.000,   9,   1,0.99896,  -2.1221,   4
  2821,'GORTAWEE    ', 110.0000,1,     0.000,     0.000,   9,   1,0.98760,  -7.2816,   1
  2841,'GORMAN      ', 110.0000,1,     0.000,     0.000,  10,   1,1.00435,  -9.9446,   1
  2842,'GORMAN      ', 220.0000,1,     0.000,     0.000,  10,   1,1.00906,  -9.3813,   1
  2852,'GLANAGOW    ', 220.0000,1,     0.000,     0.000,   3,   1,0.99536,  -5.4000,   1
  2861,'GRANGE C    ', 110.0000,1,     0.000,     0.000,   1,   1,0.99416, -12.3170,   2
  2870,'CLOGHER     ', 110.0000,1,     0.000,     0.000,   9,   1,0.99967,  -2.2589,   1
  2871,'CLOGHER     ', 110.0000,1,     0.000,     0.000,   9,   1,0.99967,  -2.2589,   1
  2881,'GLENLARA    ', 110.0000,1,     0.000,     0.000,   3,   1,0.99701,  -6.8315,   2
  2941,'HAROLDS     ', 110.0000,1,     0.000,     0.000,   1,   1,1.00651, -10.0404,   2
  2951,'HEUSTON     ', 110.0000,1,     0.000,     0.000,   1,   1,1.00709, -11.0567,   2
  2962,'HUNTSTOW    ', 220.0000,1,     0.000,     0.000,   2,   1,1.01143,  -9.4585,   4
  2972,'HUNTSTOW    ', 220.0000,1,     0.000,     0.000,   2,   1,1.01147,  -9.5057,   4
  2981,'HARTNETT    ', 110.0000,1,     0.000,     0.000,   3,   1,0.99888,  -6.1743,   2
  3061,'INISCARR    ', 110.0000,1,     0.000,     0.000,   3,   1,0.99779,  -6.6038,   1
  3081,'INCH_CIT    ', 110.0000,1,     0.000,     0.000,   2,   1,1.00710, -11.0347,   2
  3082,'INCHICOR    ', 220.0000,1,     0.000,     0.000,   2,   1,1.00622,  -9.8759,   1
  3091,'INCH_COU    ', 110.0000,1,     0.000,     0.000,   2,   1,0.99682, -12.1735,   2
  3101,'IKERRIN     ', 110.0000,1,     0.000,     0.000,   5,   1,0.99938,  -5.5316,   2
  3122,'IRISHTOW    ', 220.0000,1,     0.000,     0.000,   2,   1,1.00160,  -9.2164,   1
  3190,'NORTH KE    ', 110.0000,1,     0.000,     0.000,   7,   1,1.00623,  -6.1332,   1
  3191,'NORTH KE    ', 110.0000,1,     0.000,     0.000,   7,   1,1.00304,  -3.2051,   1
  3192,'NORTH KE    ', 220.0000,1,     0.000,     0.000,   7,   1,1.02030,  -4.8337,   1
  3194,'NORTH KE    ', 380.0000,1,     0.000,     0.000,   7,   1,1.02365,  -5.2023,   1
  3200,'KNOCKRAH    ', 110.0000,1,     0.000,     0.000,   3,   1,1.00093,  -5.7875,   1
  3201,'KNOCKRAH    ', 110.0000,1,     0.000,     0.000,   3,   1,0.99948,  -6.6249,   1
  3202,'KNOCKRAH    ', 220.0000,1,     0.000,     0.000,   3,   1,1.00093,  -5.7875,   1
  3203,'KNOCKRAH    ', 220.0000,1,     0.000,     0.000,   3,   1,1.00093,  -5.7875,   1
  3209,'KNOCKRAH    ', 110.0000,1,     0.000,     0.000,   3,   1,0.99948,  -6.6249,   1
  3211,'KNOCKAVA    ', 110.0000,1,     0.000,     0.000,   4,   1,1.00235,  -4.3967,   1
  3221,'KILBARRY    ', 110.0000,1,     0.000,     0.000,   3,   1,0.99708,  -6.8681,   1
  3241,'KILTEEL     ', 110.0000,1,     0.000,     0.000,   8,   1,0.99728, -10.0630,   2
  3251,'REAMORE     ', 110.0000,1,     0.000,     0.000,   7,   1,1.00691,  -5.7222,   1
  3261,'KILKENNY    ', 110.0000,1,     0.000,     0.000,   6,   1,1.01487,  -9.4452,   1
  3281,'KILLONAN    ', 110.0000,1,     0.000,     0.000,   7,   1,1.00217,  -6.7026,   1
  3282,'KILLONAN    ', 220.0000,1,     0.000,     0.000,   7,   1,1.00951,  -6.3383,   1
  3301,'KNOCKERA    ', 110.0000,1,     0.000,     0.000,   7,   1,1.00271,  -6.3428,   1
  3321,'KNOCKUMB    ', 110.0000,1,     0.000,     0.000,  10,   1,0.99877, -10.2165,   5
  3330,'BALLYNAH    ', 110.0000,1,     0.000,     0.000,   3,   1,1.01882,  -3.3624,   1
  3331,'BALLYNAH    ', 110.0000,1,     0.000,     0.000,   3,   1,1.01882,  -3.3624,   1
  3332,'BALLYNAH    ', 220.0000,1,     0.000,     0.000,   3,   1,1.01442,  -3.8483,   1
  3341,'KELLIS      ', 110.0000,1,     0.000,     0.000,   6,   1,1.02508,  -9.3047,   1
  3342,'KELLIS      ', 220.0000,1,     0.000,     0.000,   6,   1,1.00415,  -9.1329,   1
  3361,'KILTOY      ', 110.0000,1,     0.000,     0.000,   9,   1,1.00395,  -1.5578,   5
  3381,'KINNEGAD    ', 110.0000,1,     0.000,     0.000,   8,   1,0.99816,  -9.2316,   1
  3391,'KNOCKACU    ', 110.0000,1,     0.000,     0.000,   3,   1,1.02391,  -3.2053,   1
  3401,'KILLOTER    ', 110.0000,1,     0.000,     0.000,   5,   1,1.00377,  -8.6442,   1
  3421,'KILMORE     ', 110.0000,1,     0.000,     0.000,   1,   1,1.01732, -10.8858,   2
  3431,'KILMAHUD    ', 110.0000,1,     0.000,     0.000,   1,   1,0.99387, -12.3360,   1
  3461,'KILPADDO    ', 110.0000,1,     0.000,     0.000,   7,   1,1.00814,  -6.3330,   1
  3462,'KILPADDO    ', 220.0000,1,     0.000,     0.000,   7,   1,1.02338,  -5.6063,   1
  3472,'KILPADDO    ', 220.0000,1,     0.000,     0.000,   7,   1,1.02338,  -5.6063,   1
  3501,'LANESBOR    ', 110.0000,1,     0.000,     0.000,   9,   1,1.00000,  -5.3527,   1
  3521,'LOUTHA      ', 110.0000,1,     0.000,     0.000,  10,   1,1.02134,  -9.1670,   1
  3522,'LOUTH       ', 220.0000,1,     0.000,     0.000,  10,   1,1.01207,  -8.6303,   1
  3541,'LIMERICK    ', 110.0000,1,     0.000,     0.000,   7,   1,0.99954,  -6.8057,   1
  3551,'LAOIS       ', 110.0000,1,     0.000,     0.000,   8,   1,1.01485,  -8.8270,   1
  3554,'LAOIS       ', 380.0000,1,     0.000,     0.000,   8,   1,1.02433,  -7.6961,   1
  3561,'LISDRUM     ', 110.0000,1,     0.000,     0.000,  10,   1,1.00473,  -8.8141,   1
  3581,'LETRKENY    ', 110.0000,1,     0.000,     0.000,   9,  19,1.00394,  -1.5575,   1
  3601,'LIBERTY     ', 110.0000,1,     0.000,     0.000,   3,   1,0.99670,  -6.9036,   2
  3611,'LIBERTY     ', 110.0000,1,     0.000,     0.000,   3,   1,0.99675,  -6.8997,   2
  3621,'LISHEEN     ', 110.0000,1,     0.000,     0.000,   5,   1,1.00000,  -5.2874,   5
  3641,'LODGEWOO    ', 110.0000,1,     0.000,     0.000,   6,   1,1.00632,  -7.6878,   1
  3642,'LODGEWOO    ', 220.0000,1,     0.000,     0.000,   6,   1,1.00614,  -8.3442,   1
  3651,'CRORY       ', 110.0000,1,     0.000,     0.000,   5,   1,1.00632,  -7.6878,   1
  3751,'MISERY H    ', 110.0000,1,     0.000,     0.000,   1,   1,1.00654, -10.0238,   2
  3761,'MACETOWN    ', 110.0000,1,     0.000,     0.000,   1,   1,1.00287, -10.6743,   1
  3781,'MCDERMOT    ', 110.0000,1,     0.000,     0.000,   1,   1,1.01569, -10.5642,   2
  3801,'MIDLETON    ', 110.0000,1,     0.000,     0.000,   3,   1,0.99862,  -6.6827,   1
  3821,'MEATH HI    ', 110.0000,1,     0.000,     0.000,  10,   1,1.01169,  -9.3977,   2
  3841,'MAYNOOTH    ', 110.0000,1,     0.000,     0.000,   2,   1,1.00112, -10.1467,   1
  3842,'MAYNOOTH    ', 220.0000,1,     0.000,     0.000,   2,   1,1.00694, -10.0474,   1
  3851,'MAYNOOTH    ', 110.0000,1,     0.000,     0.000,   2,   1,1.00461, -10.4007,   1
  3852,'MAYNOOTH    ', 220.0000,1,     0.000,     0.000,   2,   1,1.00674,  -9.5640,   1
  3861,'MILLTOWN    ', 110.0000,1,     0.000,     0.000,   1,   1,1.00675,  -9.9955,   2
  3871,'MILLTOWN    ', 110.0000,1,     0.000,     0.000,   1,   1,1.00644, -11.0953,   2
  3881,'MACROOM     ', 110.0000,1,     0.000,     0.000,   3,   1,0.99917,  -6.1560,   1
  3901,'MONETEEN    ', 110.0000,1,     0.000,     0.000,   7,   1,0.99824,  -6.6826,   1
  3934,'MNYPG1      ', 380.0000,1,     0.000,     6.000,   4,   1,1.02389,  -5.2791,   1
  3941,'MONEYPOI    ', 110.0000,1,     0.000,     0.000,   4,   1,1.01799,  -6.2081,   1
  3942,'MONEYPOI    ', 220.0000,1,     0.000,     0.000,   4,   1,1.02497,  -5.6377,   1
  3944,'MNYPG3      ', 380.0000,1,     0.000,     6.000,   4,   1,1.02389,  -5.2791,   1
  3954,'MNYPG2      ', 380.0000,1,     0.000,     6.000,   4,   1,1.02389,  -5.2791,   1
  3961,'MARINA      ', 110.0000,1,     0.000,     0.000,   3,   1,0.99680,  -6.8955,   1
  3981,'MUNGRET     ', 110.0000,1,     0.000,     0.000,   7,   1,0.99810,  -6.6918,   5
  3991,'MUNGRET     ', 110.0000,1,     0.000,     0.000,   7,   1,0.99810,  -6.6914,   5
  4001,'MULLINGA    ', 110.0000,1,     0.000,     0.000,   9,   1,0.99668,  -8.7405,   1
  4021,'MALLOW      ', 110.0000,1,     0.000,     0.000,   3,   1,0.99530,  -7.1748,   1
  4041,'MOY         ', 110.0000,1,     0.000,     0.000,   9,   1,1.00371,  -4.2743,   1
  4061,'MULLAGHA    ', 110.0000,1,     0.000,     0.000,  10,   1,1.01705,  -9.3987,   2
  4071,'MEENTYCA    ', 110.0000,1,     0.000,     0.000,   9,   1,1.00602,  -1.1235,   4
  4081,'MONREAD     ', 110.0000,1,     0.000,     0.000,   8,   1,0.99777,  -9.8888,   1
  4091,'MULREAVY    ', 110.0000,1,     0.000,     0.000,   9,   1,1.00000,  -2.0580,   1
  4101,'NEWBURY     ', 110.0000,1,     0.000,     0.000,   1,   1,1.01722, -10.8967,   2
  4111,'BANCROFT    ', 110.0000,1,     0.000,     0.000,   1,   1,0.99869,  -9.8418,   2
  4201,'NEWBRIDG    ', 110.0000,1,     0.000,     0.000,   8,   1,0.99987,  -9.2691,   1
  4211,'NORTH QU    ', 110.0000,1,     0.000,     0.000,   1,   1,1.00681,  -9.9784,   2
  4221,'NAVAN       ', 110.0000,1,     0.000,     0.000,  10,   1,1.00274,  -9.9860,   1
  4242,'NORTH WA    ', 220.0000,1,     0.000,     0.000,   2,   1,1.01209,  -9.4855,   1
  4251,'NORE        ', 110.0000,1,     0.000,     0.000,   6,   1,1.01497,  -9.4479,   1
  4261,'NENAGH      ', 110.0000,1,     0.000,     0.000,   7,   1,0.99436,  -6.8450,   2
  4281,'NANGOR      ', 110.0000,1,     0.000,     0.000,   1,   1,0.99409, -12.3228,   2
  4341,'OLDCOURT    ', 110.0000,1,     0.000,     0.000,   3,   1,0.99817,  -6.6470,   5
  4351,'OLDCOURT    ', 110.0000,1,     0.000,     0.000,   3,   1,0.99824,  -6.6420,   5
  4361,'OUGHTRAG    ', 110.0000,1,     0.000,     0.000,   7,   1,1.00339,  -6.2804,   2
  4371,'GLENREE     ', 110.0000,1,     0.000,     0.000,   9,   1,1.00000,  -3.7804,   1
  4382,'OLDSTREE    ', 220.0000,1,     0.000,     0.000,   4,   1,1.02558,  -6.5370,   1
  4384,'OLDSTREE    ', 380.0000,1,     0.000,     0.000,   4,   1,1.02823,  -6.7301,   1
  4401,'POPPINTR    ', 110.0000,1,     0.000,     0.000,   1,   1,1.01728, -10.8453,   2
  4441,'POLLAPHU    ', 110.0000,1,     0.000,     0.000,   6,   1,1.02326,  -9.4618,   1
  4461,'POOLBEG     ', 110.0000,1,     0.000,     0.000,   2,   1,1.00688,  -9.9727,   2
  4462,'POOLBEG     ', 220.0000,1,     0.000,     0.000,   2,   1,1.01154,  -9.4690,   1
  4471,'POOLBEG     ', 110.0000,1,     0.000,     0.000,   2,   1,1.00688,  -9.9727,   2
  4472,'POOLBEG     ', 220.0000,1,     0.000,     0.000,   2,   1,1.00714,  -9.9686,   1
  4481,'PORTLAOI    ', 110.0000,1,     0.000,     0.000,   8,   1,1.00919,  -8.4561,   1
  4491,'PELLETST    ', 110.0000,1,     0.000,     0.000,   1,   1,1.01573, -10.5408,   2
  4501,'PLATIN      ', 110.0000,1,     0.000,     0.000,  10,   1,1.00286, -10.2598,   1
  4511,'POTTERY     ', 110.0000,1,     0.000,     0.000,   1,   1,1.00109, -10.5342,   2
  4522,'PROSPECT    ', 220.0000,1,     0.000,     0.000,   7,   1,1.02472,  -5.6559,   1
  4611,'RALAPPAN    ', 110.0000,1,     0.000,     0.000,   7,   1,1.00618,  -6.5130,   1
  4621,'RYEBROOK    ', 110.0000,1,     0.000,     0.000,   2,   1,0.99613, -11.1085,   1
  4651,'RINGSEND    ', 110.0000,1,     0.000,     0.000,   1,   1,1.00682,  -9.9725,   2
  4681,'RATHKEAL    ', 110.0000,1,     0.000,     0.000,   7,   1,0.99918,  -6.5334,   1
  4701,'RICHMOND    ', 110.0000,1,     0.000,     0.000,   9,   1,0.99825,  -5.4340,   2
  4711,'RICHMOND    ', 110.0000,1,     0.000,     0.000,   9,   1,0.99825,  -5.4340,   1
  4721,'RAFFEEN     ', 110.0000,1,     0.000,     0.000,   3,   1,0.99811,  -6.5915,   1
  4722,'RAFFEEN     ', 220.0000,1,     0.000,     0.000,   3,   1,0.99838,  -5.6504,   1
  4731,'RAFFEENB    ', 110.0000,1,     0.000,     0.000,   3,   1,0.99572,  -6.6482,   1
  4741,'RINAWADE    ', 110.0000,1,     0.000,     0.000,   2,   1,1.00313, -10.3599,   1
  4761,'RINGASKI    ', 110.0000,1,     0.000,     0.000,   3,   1,0.99568,  -6.6522,   2
  4781,'RATRUSSA    ', 110.0000,1,     0.000,     0.000,  10,   1,1.00000,  -7.3664,   1
  4901,'SHELTON     ', 110.0000,1,     0.000,     0.000,   6,   1,1.00755,  -8.8190,   5
  4911,'SUIR        ', 110.0000,1,     0.000,     0.000,   5,   1,0.99914,  -6.8362,   4
  4941,'SHANNONB    ', 110.0000,1,     0.000,     0.000,   5,   1,1.00000,  -5.8060,   1
  4942,'SHANNONB    ', 220.0000,1,     0.000,     0.000,   5,   1,1.00894,  -6.9950,   1
  4943,'SHANNONB    ', 220.0000,1,     0.000,     0.000,   5,   1,1.00894,  -6.9950,   1
  4951,'SALTHILL    ', 110.0000,1,     0.000,     0.000,   9,   1,1.01602,  -5.8725,   2
  4961,'SHANKILL    ', 110.0000,1,     0.000,     0.000,  10,   1,0.99706,  -7.8854,   1
  4981,'SLIGO       ', 110.0000,1,     0.000,     0.000,   9,   1,1.00183,  -4.8456,   1
  4991,'SORNE HI    ', 110.0000,1,     0.000,     0.000,   9,   1,1.00064,   0.5003,   2
  5001,'SOMERSET    ', 110.0000,1,     0.000,     0.000,   9,   1,1.00337,  -5.9480,   2
  5022,'SHELLYBA    ', 220.0000,1,     0.000,     0.000,   2,   1,1.01158,  -9.4672,   1
  5031,'STEPHENS    ', 110.0000,1,     0.000,     0.000,   1,   1,1.01670, -11.2120,   2
  5041,'SRANANAG    ', 110.0000,1,     0.000,     0.000,   9,   1,1.00212,  -4.7734,   1
  5042,'SRANANAG    ', 220.0000,1,     0.000,     0.000,   9,   1,1.01018,  -5.7136,   1
  5051,'SEAL ROC    ', 110.0000,1,     0.000,     0.000,   7,   1,1.00025,  -5.4879,   4
  5061,'STRATFOR    ', 110.0000,1,     0.000,     0.000,   6,   1,1.02280,  -9.4732,   2
  5071,'SEAL ROC    ', 110.0000,1,     0.000,     0.000,   7,   1,1.00025,  -5.4879,   4
  5091,'SINGLAND    ', 110.0000,1,     0.000,     0.000,   7,   1,1.00132,  -6.7509,   1
  5122,'SHELLYBA    ', 220.0000,1,     0.000,     0.000,   2,   1,1.00164,  -9.1886,   1
  5131,'TANEY       ', 110.0000,1,     0.000,     0.000,   1,   1,1.00131, -10.5371,   2
  5141,'TARBERT     ', 110.0000,1,     0.000,     0.000,   7,   1,1.02367,  -5.6143,   1
  5142,'TARBERT     ', 220.0000,1,     0.000,     0.000,   7,   1,1.02367,  -5.6143,   1
  5172,'TYNAGH      ', 220.0000,1,     0.000,     0.000,   4,   1,1.02442,  -6.4369,   1
  5181,'TRABEG      ', 110.0000,1,     0.000,     0.000,   3,   1,0.99673,  -6.8900,   1
  5191,'TIEVEBRA    ', 110.0000,1,     0.000,     0.000,   9,   1,0.99629,  -2.7337,   1
  5202,'TURLOUGH    ', 220.0000,1,     0.000,     0.000,   2,   1,1.00381, -11.6119,   1
  5221,'TULLABRA    ', 110.0000,1,     0.000,     0.000,   4,   1,1.01598,  -6.0931,   2
  5222,'SHELLYBA    ', 220.0000,1,     0.000,     0.000,   2,   1,1.00164,  -9.1886,   1
  5231,'TRINITY     ', 110.0000,1,     0.000,     0.000,   1,   1,1.00646, -10.0379,   2
  5241,'TAWNAGHM    ', 110.0000,1,     0.000,     0.000,   9,   1,1.00375,  -4.2753,   2
  5251,'TAWN_B      ', 110.0000,1,     0.000,     0.000,   9,   1,1.00375,  -4.2753,   2
  5261,'TRIEN       ', 110.0000,1,     0.000,     0.000,   7,   1,1.00551,  -6.0670,   1
  5271,'CAUTEEN     ', 110.0000,1,     0.000,     0.000,   5,   1,1.00013,  -6.0350,   1
  5281,'TRALEE      ', 110.0000,1,     0.000,     0.000,   7,   1,1.00620,  -5.9156,   1
  5301,'THURLES     ', 110.0000,1,     0.000,     0.000,   5,   1,0.99918,  -5.5543,   1
  5321,'THORNSBE    ', 110.0000,1,     0.000,     0.000,   8,   1,0.99863,  -8.1729,   2
  5341,'TONROE      ', 110.0000,1,     0.000,     0.000,   9,   1,0.99268,  -6.2085,   2
  5361,'TRILLICK    ', 110.0000,1,     0.000,     0.000,   9,   1,1.00083,   0.3107,   2
  5381,'TIPPERAR    ', 110.0000,1,     0.000,     0.000,   5,   1,0.99886,  -6.4447,   1
  5441,'WATERFOR    ', 110.0000,1,     0.000,     0.000,   5,   1,1.00411,  -8.6245,   1
  5462,'WOODLAND    ', 220.0000,1,     0.000,     0.000,   2,   1,1.01005,  -9.2282,   1
  5464,'WOODLAND    ', 380.0000,1,     0.000,     0.000,   2,   1,1.02017,  -8.5919,   1
  5481,'WHITEGAT    ', 110.0000,1,     0.000,     0.000,   3,   1,0.99937,  -6.5269,   1
  5501,'WEXFORD     ', 110.0000,1,     0.000,     0.000,   6,   1,1.00546,  -8.1613,   1
  5521,'WOLFE TO    ', 110.0000,1,     0.000,     0.000,   1,   1,1.01562, -10.5696,   2
 10204,'ARDNACRU    ',  38.0000,1,     0.000,     0.000,   4,   1,1.04192,  -7.6669,   2
 10205,'ARDNACRU    ',  38.0000,1,     0.000,     0.000,   4,   1,1.04321,  -8.0739,   2
 10210,'ARDNACRU    ', 110.0000,1,     0.000,     0.000,   4,   1,1.00038,  -6.7843,   1
 10212,'KNOCKAST    ',  20.0000,1,     0.000,     0.000,   4,   1,1.01687,  -7.1700,   1
 10213,'MIENVEE     ',  20.0000,1,     0.000,     0.000,   4,   1,1.01664,  -8.4035,   1
 10261,'ARDNA_CA    ', 110.0000,1,     0.000,     0.000,   4,   1,1.00038,  -6.7843,   1