0,   100.00          / PSS/E-30.3    MON, NOV 18 2013  18:05
AITYTFS Summer Peak 2013

    10,'F_M         ',  38.0000,1,     0.000,     0.000,   2,   1,1.04230,  -8.7317,   2
    11,'FMN LOOP    ',  38.0000,1,     0.000,     0.000,   2,   1,1.05705,  -7.6783,   2
    12,'BEDFORD     ',  38.0000,1,     0.000,     0.000,   1,   1,1.05326,  -7.9286,   2
    13,'M_R         ',  38.0000,1,     0.000,     0.000,   1,   1,1.05798,  -9.5928,   2
    14,'F_I         ',  38.0000,1,     0.000,     0.000,   2,   1,1.04668, -10.8034,   2
    15,'I_M         ',  38.0000,1,     0.000,     0.000,   2,   1,1.06208, -10.4514,   2
  1021,'ARDNACRU    ', 110.0000,1,     0.000,     0.000,   4,   1,1.04844,  -6.8979,   1
  1041,'AGHADA      ', 110.0000,1,     0.000,     0.000,   3,   1,1.04058,  -3.4165,   1
  1042,'AGHADA      ', 220.0000,1,     0.000,     0.000,   3,   1,1.04000,  -0.3151,   1
  1052,'AGHADA_B    ', 220.0000,1,     0.000,     0.000,   3,   1,1.04067,  -0.4496,   1
  1061,'ARIGNA      ', 110.0000,1,     0.000,     0.000,   9,   1,1.04639, -10.6246,   2
  1062,'AGH_AT14    ', 220.0000,1,     0.000,     0.000,   3,   1,1.04000,  -0.3151,   1
  1071,'AGANNYGA    ', 110.0000,1,     0.000,     0.000,   4,   1,1.06390,  -6.9023,   1
  1072,'AGHT2102    ', 220.0000,1,     0.000,     0.000,   3,   1,1.03996,  -0.3302,   1
  1081,'AHANE       ', 110.0000,1,     0.000,     0.000,   7,   1,1.04890,  -6.2574,   2
  1101,'ANNER       ', 110.0000,1,     0.000,     0.000,   5,   1,1.04279, -11.0173,   5
  1121,'ARKLOW      ', 110.0000,1,     0.000,     0.000,   6,   1,1.06213,  -7.7157,   1
  1122,'ARKLOW      ', 220.0000,1,     0.000,     0.000,   6,   1,1.05904,  -6.6641,   1
  1141,'ATHLONE     ', 110.0000,1,     0.000,     0.000,   9,   1,1.06948,  -9.0706,   1
  1161,'AUGHINIS    ', 110.0000,1,     0.000,     0.000,   7,   1,1.05000,  -1.3065,   1
  1181,'ARVA        ', 110.0000,1,     0.000,     0.000,  10,   1,1.04075, -12.0478,   1
  1201,'ARTANE      ', 110.0000,1,     0.000,     0.000,   1,   1,1.05898,  -5.6292,   2
  1221,'ATHY        ', 110.0000,1,     0.000,     0.000,   8,   1,1.04853,  -8.9332,   1
  1231,'BALLYWAT    ', 110.0000,1,     0.000,     0.000,   6,   1,1.05697,  -8.0044,   4
  1251,'BOOLTIAG    ', 110.0000,1,     0.000,     0.000,   4,   1,1.05000,  -7.6561,   2
  1271,'BALTRASN    ', 110.0000,1,     0.000,     0.000,  10,   1,1.04710,  -8.4815,   1
  1281,'BALLYLIC    ', 110.0000,1,     0.000,     0.000,   3,   1,1.04546,  -4.4429,   2
  1301,'BALLYBEG    ', 110.0000,1,     0.000,     0.000,   6,   1,1.05921,  -7.9376,   1
  1321,'BLAKE       ', 110.0000,1,     0.000,     0.000,   8,   1,1.04994,  -8.0875,   2
  1341,'BINBANE     ', 110.0000,1,     0.000,     0.000,   9,   1,1.00602, -13.7717,   2
  1351,'BARODA      ', 110.0000,1,     0.000,     0.000,   8,   1,1.05326,  -8.3376,   1
  1361,'BALLYDIN    ', 110.0000,1,     0.000,     0.000,   5,   1,1.03819, -10.5844,   1
  1381,'BARNAHEL    ', 110.0000,1,     0.000,     0.000,   3,   1,1.03883,  -3.9572,   1
  1391,'BARNAHEL    ', 110.0000,1,     0.000,     0.000,   3,   1,1.04884,  -4.1749,   1
  1401,'BELLACOR    ', 110.0000,1,     0.000,     0.000,   9,   1,1.04246, -12.8260,   1
  1421,'BLACKROC    ', 110.0000,1,     0.000,     0.000,   1,   1,1.05708,  -7.8759,   2
  1441,'BANDON      ', 110.0000,1,     0.000,     0.000,   3,   1,1.03952,  -5.3437,   1
  1451,'CLOGHRAN    ', 110.0000,1,     0.000,     0.000,   1,   1,1.05434,  -7.3534,   1
  1461,'BARRYMOR    ', 110.0000,1,     0.000,     0.000,   5,   1,1.03739,  -6.7981,   2
  1481,'BUTLERST    ', 110.0000,1,     0.000,     0.000,   5,   1,1.03389,  -9.7008,   1
  1501,'BRINNY      ', 110.0000,1,     0.000,     0.000,   3,   1,1.03931,  -5.3563,   5
  1541,'BANOGE      ', 110.0000,1,     0.000,     0.000,   6,   1,1.05557,  -8.2593,   1
  1551,'BOGGERAG    ', 110.0000,1,     0.000,     0.000,   3,   1,1.05000,   0.1798,   1
  1581,'CABRA       ', 110.0000,1,     0.000,     0.000,   1,   1,1.05844,  -5.6631,   2
  1601,'CLASHAVO    ', 110.0000,1,     0.000,     0.000,   3,   1,1.04334,  -3.7012,   1
  1602,'CLASHAVO    ', 220.0000,1,     0.000,     0.000,   3,   1,1.04794,  -1.7855,   1
  1611,'CLONKEEN    ', 110.0000,1,     0.000,     0.000,   7,   1,1.04895,  -2.2653,   1
  1621,'COOLROE     ', 110.0000,1,     0.000,     0.000,   3,   1,1.03304,  -4.9797,   1
  1631,'CORDERRY    ', 110.0000,1,     0.000,     0.000,   9,   1,1.05000, -10.7177,   1
  1641,'CASHLA      ', 110.0000,1,     0.000,     0.000,   9,   1,1.05834,  -7.7031,   1
  1642,'CASHLA      ', 220.0000,1,     0.000,     0.000,   9,   1,1.05187,  -5.1350,   1
  1651,'CLAHANE     ', 110.0000,1,     0.000,     0.000,   7,   1,1.05480,  -2.4081,   1
  1661,'CASTLEBA    ', 110.0000,1,     0.000,     0.000,   9,   1,1.05000, -12.6630,   1
  1681,'CARRIGAD    ', 110.0000,1,     0.000,     0.000,   3,   1,1.03927,  -4.2917,   1
  1691,'CENTRAL     ', 110.0000,1,     0.000,     0.000,   1,   1,1.05894,  -7.7435,   1
  1701,'CATH_FAL    ', 110.0000,1,     0.000,     0.000,   9,   1,1.02045, -13.1822,   1
  1711,'CROMCAST    ', 110.0000,1,     0.000,     0.000,   1,   1,1.07318,  -6.9948,   1
  1721,'CAHIR       ', 110.0000,1,     0.000,     0.000,   5,   1,1.05073, -10.5108,   1
  1731,'CROMCAST    ', 110.0000,1,     0.000,     0.000,   1,   1,1.07318,  -6.9948,   1
  1741,'CARRICKM    ', 110.0000,1,     0.000,     0.000,   2,   1,1.05906,  -7.6991,   1
  1742,'CARRICKM    ', 220.0000,1,     0.000,     0.000,   2,   1,1.06858,  -5.5041,   1
  1761,'CLIFF       ', 110.0000,1,     0.000,     0.000,   9,   1,1.02047, -13.1825,   1
  1781,'CASTLEFA    ', 110.0000,1,     0.000,     0.000,   7,   1,1.04960,  -1.3274,   5
  1801,'COOKSTOW    ', 110.0000,1,     0.000,     0.000,   1,   1,1.05920,  -7.7744,   2
  1821,'CLOON       ', 110.0000,1,     0.000,     0.000,   9,   1,1.05271,  -9.3629,   1
  1841,'CRANE       ', 110.0000,1,     0.000,     0.000,   6,   1,1.05568,  -8.1986,   1
  1861,'CARICKON    ', 110.0000,1,     0.000,     0.000,   9,   1,1.04598, -10.5565,   1
  1871,'COLLEGE     ', 110.0000,1,     0.000,     0.000,   2,   1,1.05651,  -7.1782,   1
  1881,'CHARLEVI    ', 110.0000,1,     0.000,     0.000,   3,   1,1.02884,  -6.4441,   1
  1901,'CARLOW      ', 110.0000,1,     0.000,     0.000,   6,   1,1.05542,  -9.0502,   1
  1921,'COW CROS    ', 110.0000,1,     0.000,     0.000,   3,   1,1.03696,  -4.1411,   1
  1931,'CUNGHILL    ', 110.0000,1,     0.000,     0.000,   9,   1,1.05000, -11.8155,   4
  1941,'CUSHALIN    ', 110.0000,1,     0.000,     0.000,   8,   1,1.07500,  -4.9883,   1
  1951,'CARROWBE    ', 110.0000,1,     0.000,     0.000,   9,   1,1.03805, -13.5196,   1
  1961,'CASTLEVI    ', 110.0000,1,     0.000,     0.000,   3,   1,1.03397,  -4.6568,   1
  1971,'COOMAGEA    ', 110.0000,1,     0.000,     0.000,   7,   1,1.05000,  -1.8807,   4
  1981,'CORRACLA    ', 110.0000,1,     0.000,     0.000,   9,   1,1.03023, -13.7832,   1
  1991,'CASTLEDO    ', 110.0000,1,     0.000,     0.000,   6,   1,1.05549,  -7.4888,   1
  2001,'CULLENAG    ', 110.0000,1,     0.000,     0.000,   5,   1,1.03888,  -9.1897,   1
  2002,'CULLENAG    ', 220.0000,1,     0.000,     0.000,   5,   1,1.04195,  -6.6349,   1
  2021,'CITY WES    ', 110.0000,1,     0.000,     0.000,   1,   1,1.03778,  -9.9172,   2
  2041,'CORDUFF     ', 110.0000,1,     0.000,     0.000,   2,   1,1.05700,  -7.1010,   1
  2042,'CORDUFF     ', 220.0000,1,     0.000,     0.000,   2,   1,1.07500,  -3.3076,   1
  2052,'CORDUFFB    ', 220.0000,1,     0.000,     0.000,   2,   1,1.07500,  -3.3076,   1
  2081,'DUNKETTL    ', 110.0000,4,     0.000,     0.000,   3,   1,1.00000,   0.0000,   5
  2101,'DUNDALK     ', 110.0000,1,     0.000,     0.000,  10,   1,1.04195, -10.2908,   2
  2121,'DRUMLINE    ', 110.0000,1,     0.000,     0.000,   4,   1,1.04398,  -7.9828,   1
  2131,'DROMADA     ', 110.0000,1,     0.000,     0.000,   3,   1,1.05118,  -2.0540,   1
  2141,'DUNGARVA    ', 110.0000,1,     0.000,     0.000,   5,   1,1.02998,  -8.4074,   1
  2161,'DOON        ', 110.0000,1,     0.000,     0.000,   5,   1,1.04361, -10.9650,   1
  2181,'DRYBRIDG    ', 110.0000,1,     0.000,     0.000,  10,   1,1.03817,  -9.7822,   1
  2202,'DUNSTOWN    ', 220.0000,1,     0.000,     0.000,   2,   1,1.06865,  -4.4524,   1
  2204,'DUNSTOWN    ', 380.0000,1,     0.000,     0.000,   2,   1,1.01271,  -1.0158,   1
  2221,'DUNMANWA    ', 110.0000,1,     0.000,     0.000,   3,   1,1.04043,  -4.9454,   1
  2231,'DERRYBRI    ', 110.0000,1,     0.000,     0.000,   4,   1,1.06574,  -6.6484,   2
  2241,'DALLOW      ', 110.0000,1,     0.000,     0.000,   5,   1,1.06451,  -7.6613,   2
  2251,'DARDISTO    ', 110.0000,1,     0.000,     0.000,   1,   1,1.07359,  -6.9697,   2
  2261,'DERRYIRO    ', 110.0000,1,     0.000,     0.000,   8,   1,1.02929,  -9.3330,   1
  2281,'DALTON      ', 110.0000,1,     0.000,     0.000,   9,   1,1.04368, -11.4854,   1
  2301,'DUNFIRTH    ', 110.0000,1,     0.000,     0.000,   8,   1,1.04021,  -8.5597,   2
  2321,'DRUMKEEN    ', 110.0000,1,     0.000,     0.000,   9,   1,0.98795, -13.8793,   1
  2361,'ENNIS       ', 110.0000,1,     0.000,     0.000,   4,   1,1.04412,  -7.9789,   1
  2481,'FASS EAS    ', 110.0000,1,     0.000,     0.000,   2,   1,1.05481,  -7.9062,   2
  2491,'FASS WES    ', 110.0000,1,     0.000,     0.000,   2,   1,1.05468,  -7.9043,   2
  2521,'FLAGFORD    ', 110.0000,1,     0.000,     0.000,   9,   1,1.04710, -10.4231,   1
  2522,'FLAGFORD    ', 220.0000,1,     0.000,     0.000,   9,   1,1.04775,  -8.5910,   1
  2541,'FRN ST A    ', 110.0000,1,     0.000,     0.000,   1,   1,1.07124,  -7.5895,   2
  2551,'FRN ST B    ', 110.0000,1,     0.000,     0.000,   1,   1,1.06798,  -7.8604,   2
  2561,'FIN_URBA    ', 110.0000,1,     0.000,     0.000,   2,   1,1.06046,  -5.5147,   2
  2562,'FINGLAS     ', 220.0000,1,     0.000,     0.000,   2,   1,1.07500,  -3.4171,   1
  2563,'FINGLAS2    ', 220.0000,1,     0.000,     0.000,   2,   1,1.07500,  -3.4171,   1
  2571,'FIN_RURA    ', 110.0000,1,     0.000,     0.000,   2,   1,1.07391,  -6.8070,   2
  2581,'KILDONAN    ', 110.0000,1,     0.000,     0.000,   2,   1,1.05575,  -7.2601,   2
  2671,'GARVAGH     ', 110.0000,1,     0.000,     0.000,   9,   1,1.05286, -10.5490,   4
  2681,'GILRA       ', 110.0000,1,     0.000,     0.000,   9,   1,1.04900, -10.7114,   2
  2701,'GLASMORE    ', 110.0000,1,     0.000,     0.000,   1,   1,1.05824,  -7.8392,   2
  2721,'GRIFFINR    ', 110.0000,1,     0.000,     0.000,   2,   1,1.05470,  -7.8925,   2
  2731,'GLANLEE     ', 110.0000,1,     0.000,     0.000,   7,   1,1.05011,  -1.8665,   4
  2741,'GREAT IS    ', 110.0000,1,     0.000,     0.000,   6,   1,1.04026,  -9.3481,   1
  2742,'GREAT IS    ', 220.0000,1,     0.000,     0.000,   6,   1,1.04534,  -7.1294,   1
  2761,'GRANGE      ', 110.0000,1,     0.000,     0.000,   1,   1,1.07298,  -7.0155,   2
  2771,'GARROW      ', 110.0000,1,     0.000,     0.000,   7,   1,1.05043,  -2.0679,   7
  2780,'GALWAY      ', 110.0000,1,     0.000,     0.000,   9,   1,1.05056,  -8.3072,   1
  2781,'GALWAY      ', 110.0000,1,     0.000,     0.000,   9,   1,1.05056,  -8.3072,   1
  2801,'GOLAGH      ', 110.0000,1,     0.000,     0.000,   9,   1,1.00146, -13.4314,   4
  2821,'GORTAWEE    ', 110.0000,1,     0.000,     0.000,   9,   1,1.03190, -13.7841,   1
  2841,'GORMAN      ', 110.0000,1,     0.000,     0.000,  10,   1,1.03675,  -9.9816,   1
  2842,'GORMAN      ', 220.0000,1,     0.000,     0.000,  10,   1,1.04778,  -7.5313,   1
  2852,'GLANAGOW    ', 220.0000,1,     0.000,     0.000,   3,   1,1.04055,  -0.3547,   1
  2861,'GRANGE C    ', 110.0000,1,     0.000,     0.000,   1,   1,1.03838,  -9.7321,   2
  2881,'GLENLARA    ', 110.0000,1,     0.000,     0.000,   3,   1,1.02595,  -6.1045,   2
  2941,'HAROLDS     ', 110.0000,1,     0.000,     0.000,   1,   1,1.07138,  -7.6009,   2
  2951,'HEUSTON     ', 110.0000,1,     0.000,     0.000,   1,   1,1.06817,  -7.8462,   2
  2962,'HUNTSTOW    ', 220.0000,1,     0.000,     0.000,   2,   1,1.07511,  -3.3264,   4
  2972,'HUNTSTOW    ', 220.0000,1,     0.000,     0.000,   2,   1,1.07653,  -3.0465,   4
  3061,'INISCARR    ', 110.0000,1,     0.000,     0.000,   3,   1,1.03356,  -4.8843,   1
  3081,'INCH_CIT    ', 110.0000,1,     0.000,     0.000,   2,   1,1.06848,  -7.8093,   2
  3082,'INCHICOR    ', 220.0000,1,     0.000,     0.000,   2,   1,1.07308,  -5.9640,   1
  3091,'INCH_COU    ', 110.0000,1,     0.000,     0.000,   2,   1,1.04298,  -9.5543,   2
  3101,'IKERRIN     ', 110.0000,1,     0.000,     0.000,   5,   1,1.04354, -10.8858,   2
  3122,'IRISHTOW    ', 220.0000,1,     0.000,     0.000,   2,   1,1.07500,  -5.3251,   1
  3200,'KNOCKRAH    ', 110.0000,1,     0.000,     0.000,   3,   1,1.04112,  -1.8420,   1
  3201,'KNOCKRAH    ', 110.0000,1,     0.000,     0.000,   3,   1,1.03764,  -4.5909,   1
  3202,'KNOCKRAH    ', 220.0000,1,     0.000,     0.000,   3,   1,1.04112,  -1.8420,   1
  3203,'KNOCKRAH    ', 220.0000,1,     0.000,     0.000,   3,   1,1.04112,  -1.8420,   1
  3209,'KNOCKRAH    ', 110.0000,1,     0.000,     0.000,   3,   1,1.03764,  -4.5909,   1
  3221,'KILBARRY    ', 110.0000,1,     0.000,     0.000,   3,   1,1.03215,  -5.1640,   1
  3241,'KILTEEL     ', 110.0000,1,     0.000,     0.000,   8,   1,1.05821,  -8.7798,   2
  3261,'KILKENNY    ', 110.0000,1,     0.000,     0.000,   6,   1,1.03470, -11.3610,   1
  3281,'KILLONAN    ', 110.0000,1,     0.000,     0.000,   7,   1,1.04918,  -6.2296,   1
  3282,'KILLONAN    ', 220.0000,1,     0.000,     0.000,   7,   1,1.04437,  -4.2840,   1
  3301,'KNOCKERA    ', 110.0000,1,     0.000,     0.000,   7,   1,1.04255,  -3.1467,   1
  3321,'KNOCKUMB    ', 110.0000,1,     0.000,     0.000,  10,   1,1.02827, -10.5531,   5
  3341,'KELLIS      ', 110.0000,1,     0.000,     0.000,   6,   1,1.05944,  -8.9617,   1
  3342,'KELLIS      ', 220.0000,1,     0.000,     0.000,   6,   1,1.04708,  -6.6660,   1
  3361,'KILTOY      ', 110.0000,1,     0.000,     0.000,   9,   1,0.97991, -14.4120,   5
  3381,'KINNEGAD    ', 110.0000,1,     0.000,     0.000,   8,   1,1.03116,  -9.2613,   1
  3401,'KILLOTER    ', 110.0000,1,     0.000,     0.000,   5,   1,1.03464,  -9.6946,   1
  3421,'KILMORE     ', 110.0000,1,     0.000,     0.000,   1,   1,1.07316,  -6.9944,   2
  3431,'KILMAHUD    ', 110.0000,1,     0.000,     0.000,   1,   1,1.03811,  -9.7496,   1
  3501,'LANESBOR    ', 110.0000,1,     0.000,     0.000,   9,   1,1.05000,  -8.9265,   1
  3521,'LOUTHA      ', 110.0000,1,     0.000,     0.000,  10,   1,1.05792,  -9.5603,   1
  3522,'LOUTH       ', 220.0000,1,     0.000,     0.000,  10,   1,1.04112,  -7.7695,   1
  3541,'LIMERICK    ', 110.0000,1,     0.000,     0.000,   7,   1,1.04318,  -6.2124,   1
  3561,'LISDRUM     ', 110.0000,1,     0.000,     0.000,  10,   1,1.05759, -12.1103,   1
  3581,'LETTERKE    ', 110.0000,1,     0.000,     0.000,   9,   1,0.97990, -14.4117,   1
  3601,'LIBERTY     ', 110.0000,1,     0.000,     0.000,   3,   1,1.03271,  -5.1337,   2
  3611,'LIBERTY     ', 110.0000,1,     0.000,     0.000,   3,   1,1.03288,  -5.1229,   2
  3621,'LISHEEN     ', 110.0000,1,     0.000,     0.000,   5,   1,1.04665, -11.7836,   5
  3641,'LODGEWOO    ', 110.0000,1,     0.000,     0.000,   6,   1,1.05589,  -7.5617,   1
  3642,'LODGEWOO    ', 220.0000,1,     0.000,     0.000,   6,   1,1.05415,  -7.0364,   1
  3651,'CRORY       ', 110.0000,1,     0.000,     0.000,   5,   1,1.05589,  -7.5617,   1
  3751,'MISERY H    ', 110.0000,1,     0.000,     0.000,   1,   1,1.07178,  -7.5801,   2
  3761,'MACETOWN    ', 110.0000,1,     0.000,     0.000,   1,   1,1.05497,  -7.2993,   1
  3781,'MCDERMOT    ', 110.0000,1,     0.000,     0.000,   1,   1,1.05830,  -5.6562,   2
  3801,'MIDLETON    ', 110.0000,1,     0.000,     0.000,   3,   1,1.03545,  -4.4673,   1
  3821,'MEATH HI    ', 110.0000,1,     0.000,     0.000,  10,   1,1.03964,  -9.8986,   2
  3841,'MAYNOOTH    ', 110.0000,1,     0.000,     0.000,   2,   1,1.05612,  -7.8018,   1
  3842,'MAYNOOTH    ', 220.0000,1,     0.000,     0.000,   2,   1,1.06487,  -5.8910,   1
  3851,'MAYNOOTH    ', 110.0000,1,     0.000,     0.000,   2,   1,1.05498,  -7.2743,   1
  3852,'MAYNOOTH    ', 220.0000,1,     0.000,     0.000,   2,   1,1.06948,  -4.9568,   1
  3861,'MILLTOWN    ', 110.0000,1,     0.000,     0.000,   1,   1,1.07247,  -7.5530,   2
  3871,'MILLTOWN    ', 110.0000,1,     0.000,     0.000,   1,   1,1.06606,  -7.9285,   2
  3881,'MACROOM     ', 110.0000,1,     0.000,     0.000,   3,   1,1.04015,  -4.2262,   1
  3901,'MONETEEN    ', 110.0000,1,     0.000,     0.000,   7,   1,1.04203,  -5.3716,   1
  3934,'MNYPG1      ', 380.0000,1,     0.000,     6.000,   4,   1,1.05000,   4.4029,   1
  3941,'MONEYPOI    ', 110.0000,1,     0.000,     0.000,   4,   1,1.04979,  -7.6677,   1
  3942,'MONEYPOI    ', 220.0000,1,     0.000,     0.000,   4,   1,1.06648,   0.1856,   1
  3944,'MNYPG3      ', 380.0000,1,     0.000,     6.000,   4,   1,1.05000,   4.4029,   1
  3954,'MNYPG2      ', 380.0000,1,     0.000,     6.000,   4,   1,1.05000,   4.4029,   1
  3961,'MARINA      ', 110.0000,1,     0.000,     0.000,   3,   1,1.03305,  -5.1120,   1
  3981,'MUNGRET     ', 110.0000,1,     0.000,     0.000,   7,   1,1.04181,  -5.3847,   5
  3991,'MUNGRET     ', 110.0000,1,     0.000,     0.000,   7,   1,1.04181,  -5.3841,   5
  4001,'MULLINGA    ', 110.0000,1,     0.000,     0.000,   9,   1,1.02864,  -9.8064,   1
  4021,'MALLOW      ', 110.0000,1,     0.000,     0.000,   3,   1,1.02562,  -6.2271,   1
  4041,'MOY         ', 110.0000,1,     0.000,     0.000,   9,   1,1.04432, -12.7093,   1
  4061,'MULLAGHA    ', 110.0000,1,     0.000,     0.000,  10,   1,1.04690, -10.0777,   2
  4071,'MEENTYCA    ', 110.0000,1,     0.000,     0.000,   9,   1,0.98963, -13.6145,   4
  4081,'MONREAD     ', 110.0000,1,     0.000,     0.000,   8,   1,1.05558,  -8.6519,   1
  4101,'NEWBURY     ', 110.0000,1,     0.000,     0.000,   1,   1,1.07304,  -7.0072,   2
  4111,'BANCROFT    ', 110.0000,1,     0.000,     0.000,   1,   1,1.05824,  -7.7499,   2
  4201,'NEWBRIDG    ', 110.0000,1,     0.000,     0.000,   8,   1,1.05254,  -8.0458,   1
  4211,'NORTH QU    ', 110.0000,1,     0.000,     0.000,   1,   1,1.07258,  -7.5406,   2
  4221,'NAVAN       ', 110.0000,1,     0.000,     0.000,  10,   1,1.03334, -10.2784,   1
  4242,'NORTH WA    ', 220.0000,1,     0.000,     0.000,   2,   1,1.07577,  -3.5092,   1
  4261,'NENAGH      ', 110.0000,1,     0.000,     0.000,   7,   1,1.02401,  -7.2424,   2
  4281,'NANGOR      ', 110.0000,1,     0.000,     0.000,   1,   1,1.03819,  -9.7443,   2
  4341,'OLDCOURT    ', 110.0000,1,     0.000,     0.000,   3,   1,1.03689,  -4.1459,   5
  4351,'OLDCOURT    ', 110.0000,1,     0.000,     0.000,   3,   1,1.03696,  -4.1412,   5
  4361,'OUGHTRAG    ', 110.0000,1,     0.000,     0.000,   7,   1,1.04353,  -3.4490,   2
  4371,'GLENREE     ', 110.0000,1,     0.000,     0.000,   9,   1,1.05000, -12.2888,   1
  4382,'OLDSTREE    ', 220.0000,1,     0.000,     0.000,   4,   1,1.04874,  -1.1879,   1
  4384,'OLDSTREE    ', 380.0000,1,     0.000,     0.000,   4,   1,1.04242,   1.3989,   1
  4401,'POPPINTR    ', 110.0000,1,     0.000,     0.000,   1,   1,1.07341,  -6.9064,   2
  4441,'POLLAPHU    ', 110.0000,1,     0.000,     0.000,   6,   1,1.04839,  -9.4629,   1
  4461,'POOLBEG     ', 110.0000,1,     0.000,     0.000,   2,   1,1.07287,  -7.4800,   2
  4462,'POOLBEG     ', 220.0000,1,     0.000,     0.000,   2,   1,1.07535,  -3.5356,   1
  4471,'POOLBEG     ', 110.0000,1,     0.000,     0.000,   2,   1,1.07287,  -7.4814,   2
  4472,'POOLBEG     ', 220.0000,1,     0.000,     0.000,   2,   1,1.07482,  -6.0412,   1
  4481,'PORTLAOI    ', 110.0000,1,     0.000,     0.000,   8,   1,1.04911,  -8.2749,   1
  4491,'PELLETST    ', 110.0000,1,     0.000,     0.000,   1,   1,1.05911,  -5.6224,   2
  4501,'PLATIN      ', 110.0000,1,     0.000,     0.000,  10,   1,1.03802,  -9.7289,   1
  4511,'POTTERY     ', 110.0000,1,     0.000,     0.000,   1,   1,1.05827,  -7.7775,   2
  4522,'PROSPECT    ', 220.0000,1,     0.000,     0.000,   7,   1,1.06364,  -0.9158,   1
  4621,'RYEBROOK    ', 110.0000,1,     0.000,     0.000,   2,   1,1.04441,  -8.0190,   1
  4651,'RINGSEND    ', 110.0000,1,     0.000,     0.000,   1,   1,1.07270,  -7.5284,   2
  4681,'RATHKEAL    ', 110.0000,1,     0.000,     0.000,   7,   1,1.04321,  -4.3791,   1
  4701,'RICHMOND    ', 110.0000,1,     0.000,     0.000,   9,   1,1.04524,  -9.1748,   2
  4711,'RICHMOND    ', 110.0000,1,     0.000,     0.000,   9,   1,1.04524,  -9.1748,   1
  4721,'RAFFEEN     ', 110.0000,1,     0.000,     0.000,   3,   1,1.03953,  -3.9142,   1
  4722,'RAFFEEN     ', 220.0000,1,     0.000,     0.000,   3,   1,1.04117,  -0.8229,   1
  4731,'RAFFEENB    ', 110.0000,1,     0.000,     0.000,   3,   1,1.04957,  -4.1218,   1
  4741,'RINAWADE    ', 110.0000,1,     0.000,     0.000,   2,   1,1.04957,  -7.6786,   1
  4761,'RINGASKI    ', 110.0000,1,     0.000,     0.000,   3,   1,1.04949,  -4.1292,   2
  4781,'RATRUSSA    ', 110.0000,1,     0.000,     0.000,  10,   1,1.05000, -10.8724,   1
  4901,'SHELTON     ', 110.0000,1,     0.000,     0.000,   6,   1,1.06201,  -7.7235,   5
  4941,'SHANNONB    ', 110.0000,1,     0.000,     0.000,   5,   1,1.07500,  -7.0263,   1
  4942,'SHANNONB    ', 220.0000,1,     0.000,     0.000,   5,   1,1.06529,  -5.6705,   1
  4943,'SHANNONB    ', 220.0000,1,     0.000,     0.000,   5,   1,1.06529,  -5.6705,   1
  4951,'SALTHILL    ', 110.0000,1,     0.000,     0.000,   9,   1,1.04888,  -8.4368,   2
  4961,'SHANKILL    ', 110.0000,1,     0.000,     0.000,  10,   1,1.04473, -12.1177,   1
  4981,'SLIGO       ', 110.0000,1,     0.000,     0.000,   9,   1,1.04342, -11.7257,   1
  4991,'SORNE HI    ', 110.0000,1,     0.000,     0.000,   9,   1,0.97484, -13.8204,   2
  5001,'SOMERSET    ', 110.0000,1,     0.000,     0.000,   9,   1,1.06609,  -7.4616,   2
  5022,'SHELLYBA    ', 220.0000,1,     0.000,     0.000,   2,   1,1.07540,  -3.5294,   1
  5031,'STEPHENS    ', 110.0000,1,     0.000,     0.000,   1,   1,1.06260,  -7.6879,   2
  5041,'SRANANAG    ', 110.0000,1,     0.000,     0.000,   9,   1,1.04431, -11.3561,   1
  5042,'SRANANAG    ', 220.0000,1,     0.000,     0.000,   9,   1,1.04555,  -9.7738,   1
  5051,'SEAL ROC    ', 110.0000,1,     0.000,     0.000,   7,   1,1.05044,  -1.2608,   4
  5061,'STRATFOR    ', 110.0000,1,     0.000,     0.000,   6,   1,1.04718,  -9.5001,   2
  5071,'SEAL ROC    ', 110.0000,1,     0.000,     0.000,   7,   1,1.05044,  -1.2608,   4
  5091,'SINGLAND    ', 110.0000,1,     0.000,     0.000,   7,   1,1.04856,  -6.5475,   1
  5122,'SHELLYBA    ', 220.0000,1,     0.000,     0.000,   2,   1,1.07467,  -5.2995,   1
  5131,'TANEY       ', 110.0000,1,     0.000,     0.000,   1,   1,1.05874,  -7.7764,   2
  5141,'TARBERT     ', 110.0000,1,     0.000,     0.000,   7,   1,1.05729,  -2.1491,   1
  5142,'TARBERT     ', 220.0000,1,     0.000,     0.000,   7,   1,1.06050,  -1.4647,   1
  5172,'TYNAGH      ', 220.0000,1,     0.000,     0.000,   4,   1,1.04958,  -2.4115,   1
  5181,'TRABEG      ', 110.0000,1,     0.000,     0.000,   3,   1,1.03409,  -5.0612,   1
  5202,'TURLOUGH    ', 220.0000,1,     0.000,     0.000,   2,   1,1.06646,  -3.8374,   1
  5221,'TULLABRA    ', 110.0000,1,     0.000,     0.000,   4,   1,1.04967,  -7.6672,   2
  5222,'SHELLYBA    ', 220.0000,1,     0.000,     0.000,   2,   1,1.07467,  -5.2995,   1
  5241,'TAWNAGHM    ', 110.0000,1,     0.000,     0.000,   9,   1,1.04436, -12.7103,   2
  5251,'TAWN_B      ', 110.0000,1,     0.000,     0.000,   9,   1,1.04436, -12.7103,   2
  5261,'TRIEN       ', 110.0000,1,     0.000,     0.000,   7,   1,1.05326,  -2.2862,   1
  5271,'CAUTEEN     ', 110.0000,1,     0.000,     0.000,   5,   1,1.05000,  -8.0486,   1
  5281,'TRALEE      ', 110.0000,1,     0.000,     0.000,   7,   1,1.05448,  -2.8303,   1
  5301,'THURLES     ', 110.0000,1,     0.000,     0.000,   5,   1,1.04408, -11.5746,   1
  5321,'THORNSBE    ', 110.0000,1,     0.000,     0.000,   8,   1,1.00831, -10.0227,   2
  5341,'TONROE      ', 110.0000,1,     0.000,     0.000,   9,   1,1.03499, -10.8124,   2
  5361,'TRILLICK    ', 110.0000,1,     0.000,     0.000,   9,   1,0.97352, -13.9586,   2
  5381,'TIPPERAR    ', 110.0000,1,     0.000,     0.000,   5,   1,1.04653,  -9.2684,   1
  5441,'WATERFOR    ', 110.0000,1,     0.000,     0.000,   5,   1,1.03563,  -9.6518,   1
  5462,'WOODLAND    ', 220.0000,1,     0.000,     0.000,   2,   1,1.07439,  -2.9935,   1
  5464,'WOODLAND    ', 380.0000,1,     0.000,     0.000,   2,   1,1.01662,   0.5705,   1
  5481,'WHITEGAT    ', 110.0000,1,     0.000,     0.000,   3,   1,1.03866,  -3.6813,   1
  5501,'WEXFORD     ', 110.0000,1,     0.000,     0.000,   6,   1,1.05404,  -9.5443,   1
  5521,'WOLFE TO    ', 110.0000,1,     0.000,     0.000,   1,   1,1.05804,  -5.6732,   2
 10204,'ARDNACRU    ',  38.0000,1,     0.000,     0.000,   4,   1,1.04629,  -8.7538,   2
 10205,'ARDNACRU    ',  38.0000,1,     0.000,     0.000,   4,   1,1.04648,  -9.1055,   2
 10210,'ARDNACRU    ', 110.0000,1,     0.000,     0.000,   4,   1,1.04844,  -6.8979,   1
 10212,'KNOCKAST    ',  20.0000,1,     0.000,     0.000,   4,   1,0.99680,  -8.1959,   1
 10213,'MIENVEE     ',  20.0000,1,     0.000,     0.000,   4,   1,0.99660,  -9.4796,   1
 10261,'ARDNA_CA    ', 110.0000,1,     0.000,     0.000,   4,   1,1.04844,  -6.8979,   1
 10271,'ARDNG1      ',  10.5000,2,     0.000,     0.000,   4,   1,0.99852,  -6.8979,   3
 10272,'ARDNG2      ',  10.5000,2,     0.000,     0.000,   4,   1,0.99852,  -6.8979,   3
 10273,'ARDNG3      ',  10.5000,2,     0.000,     0.000,   4,   1,0.99852,  -6.8979,   3
 10274,'ARDNG4      ',  10.5000,2,     0.000,     0.000,   4,   1,0.99852,  -6.8979,   3
 10275,'KNOCKAST    ',   0.6900,2,     0.000,     0.000,   4,   1,0.99722,  -8.3023,   1
 10276,'MIENVEE     ',   0.6900,2,     0.000,     0.000,   4,   1,0.99698,  -9.8414,   1
 10401,'AGHADA      ',  10.0000,1,     0.000,     0.000,   3,   1,0.99960,  -3.4165,   3
 10421,'AGHADA      ',  10.5000,1,     0.000,     0.000,   3,   1,1.04090,  -3.1045,   1
 10470,'AGH_CCGT    ',  21.0000,2,     0.000,     0.000,   3,   1,0.99447,   4.6505,   1
 10471,'AGH_G1      ',  20.0000,2,     0.000,     0.000,   3,   1,0.99048,  -0.3151,   3
 10472,'AGH_G11     ',  10.5000,2,     0.000,     0.000,   3,   1,0.99111,  -0.4496,   3
 10473,'AGH_G12     ',  10.5000,2,     0.000,     0.000,   3,   1,0.99111,  -0.4496,   3
 10474,'AGH_G14     ',  10.5000,2,     0.000,     0.000,   3,   1,0.99048,  -0.3151,   3
 10602,'ARIGNA      ',  20.0000,1,     0.000,     0.000,   9,   1,1.05283, -10.7493,   2
 10604,'ARIGNA      ',  38.0000,1,     0.000,     0.000,   9,   1,1.01198, -11.6246,   1
 10619,'ARIGNA_T    ', 110.0000,1,     0.000,     0.000,   9,   1,1.04645, -10.6261,   1
 10671,'CORRIEM     ',   0.6900,2,     0.000,     0.000,   9,   1,1.03365, -10.9235,   1
 10672,'KILRONAN    ',   0.6900,2,     0.000,     0.000,   9,   1,1.03709, -11.0642,   1
 10673,'SPIONKO     ',   0.6900,2,     0.000,     0.000,   9,   1,1.03386, -10.9245,   1
 10674,'SELTANAV    ',   0.4000,2,     0.000,     0.000,   9,   1,1.03433, -10.7436,   1
 10801,'AHANE       ',  11.0000,1,     0.000,     0.000,   7,   1,1.03237,  -7.2512,   2
 11201,'ARKLOW      ',  10.0000,1,     0.000,     0.000,   6,   1,1.03863, -11.0606,   1
 11202,'ARKLOW B    ',  20.0000,1,     0.000,     0.000,   6,   1,1.01293,  -7.2338,   1
 11204,'ARKLOW      ',  38.0000,2,     0.000,     0.000,   6,   1,1.06331,  -7.9236,   2
 11214,'ARKLOW      ',  38.0000,1,     0.000,     0.000,   6,   1,1.06145,  -8.7191,   1
 11221,'ARKL        ',  10.5000,1,     0.000,     0.000,   6,   1,1.06199,  -7.6419,   1
 11222,'ARKL        ',  10.5000,1,     0.000,     0.000,   6,   1,1.06359,  -7.6146,   1
 11224,'RAHEENLE    ',  38.0000,1,     0.000,     0.000,   6,   1,1.06241,  -8.7378,   1
 11234,'KILMAGIG    ',  38.0000,1,     0.000,     0.000,   6,   1,1.06960,  -8.2478,   1
 11242,'RAHEEN 2    ',  20.0000,1,     0.000,     0.000,   6,   1,1.06241,  -9.7378,   1
 11244,'BALLYCUM    ',  38.0000,1,     0.000,     0.000,   6,   1,1.07256,  -8.3157,   1
 11252,'RATHDRUM    ',  20.0000,1,     0.000,     0.000,   6,   1,1.00696,  -9.2951,   1
 11254,'RATHDRUM    ',  38.0000,1,     0.000,     0.000,   6,   1,1.07053,  -8.2951,   1
 11271,'ARKLOWB     ',   3.3000,2,     0.000,     0.000,   6,   1,1.01328,  -7.1787,   1
 11404,'ATHLONE     ',  38.0000,1,     0.000,     0.000,   9,   1,1.06487, -13.6633,   2
 11461,'ATH_CAP     ', 110.0000,1,     0.000,     0.000,   9,   1,1.06948,  -9.0706,   1
 12001,'ARTANE      ',  10.0000,1,     0.000,     0.000,   1,   1,1.05449,  -7.0827,   2
 12201,'ATHY        ',  10.0000,1,     0.000,     0.000,   8,   1,1.06018, -12.3901,   2
 12302,'BALLYWAT    ',  20.0000,1,     0.000,     0.000,   6,   1,1.06214,  -6.3928,   4
 12370,'BALLYWAT    ',   0.4000,1,     0.000,     0.000,   6,   1,1.06214,  -6.3928,   1
 12371,'BALLYWAT    ',   0.4000,2,     0.000,     0.000,   6,   1,1.05163,  -5.5847,   4
 12372,'BALLYWAT    ',   0.4000,2,     0.000,     0.000,   6,   1,1.06398,  -5.5671,   4
 12502,'BOOLTIAG    ',  20.0000,1,     0.000,     0.000,   4,   1,1.07079,  -6.0875,   4
 12571,'BOOLTIAG    ',   0.6900,2,     0.000,     0.000,   4,   1,1.07116,  -5.4491,   4
 12572,'BOOLTIAG    ',   0.6900,2,     0.000,     0.000,   4,   1,1.08359,  -6.3803,   1
 12573,'BOOLTIAG    ',   0.6900,2,     0.000,     0.000,   4,   1,1.08419,  -6.3468,   1
 12702,'BALTRASN    ',  20.0000,1,     0.000,     0.000,  10,   1,1.05806, -11.5807,   2
 12802,'GLANTA C    ',  20.0000,1,     0.000,     0.000,   3,   1,1.01709,  -1.9365,   1
 12804,'BALLYLIC    ',  38.0000,1,     0.000,     0.000,   3,   1,1.07039,  -3.6633,   2