0,   100.00          / PSS/E-30.3    MON, NOV 18 2013  18:08
AITYTFS Summer Peak 2019

    10,'F_M         ',  38.0000,1,     0.000,     0.000,   2,   1,1.06975, -10.7845,   2
    11,'FMN LOOP    ',  38.0000,1,     0.000,     0.000,   2,   1,1.05465,  -9.8479,   2
    12,'BEDFORD     ',  38.0000,1,     0.000,     0.000,   1,   1,1.05506,  -7.0407,   2
    13,'M_R         ',  38.0000,1,     0.000,     0.000,   1,   1,1.07019,  -7.2788,   2
    14,'F_I         ',  38.0000,1,     0.000,     0.000,   2,   1,1.04614, -10.9592,   2
    15,'I_M         ',  38.0000,1,     0.000,     0.000,   2,   1,1.06164, -10.5877,   2
  1021,'ARDNACRU    ', 110.0000,1,     0.000,     0.000,   4,   1,1.04558,  -4.0363,   1
  1041,'AGHADA      ', 110.0000,1,     0.000,     0.000,   3,   1,1.04456,  -2.8445,   1
  1042,'AGHADA      ', 220.0000,1,     0.000,     0.000,   3,   1,1.05000,  -0.0519,   1
  1052,'AGHADA_B    ', 220.0000,1,     0.000,     0.000,   3,   1,1.05185,  -0.9387,   1
  1061,'ARIGNA      ', 110.0000,1,     0.000,     0.000,   9,   1,1.04710,  -6.9227,   2
  1062,'AGH_AT14    ', 220.0000,1,     0.000,     0.000,   3,   1,1.05000,  -0.0519,   1
  1071,'AGANNYGA    ', 110.0000,1,     0.000,     0.000,   4,   1,1.06219,  -2.0921,   1
  1072,'AGHT2102    ', 220.0000,1,     0.000,     0.000,   3,   1,1.04994,  -0.0651,   1
  1081,'AHANE       ', 110.0000,1,     0.000,     0.000,   7,   1,1.04527,  -3.7891,   2
  1091,'ADAMSTOW    ', 110.0000,1,     0.000,     0.000,   1,   1,1.03822,  -9.9952,   2
  1101,'ANNER       ', 110.0000,1,     0.000,     0.000,   5,   1,1.04797,  -6.4818,   5
  1121,'ARKLOW      ', 110.0000,1,     0.000,     0.000,   6,   1,1.07030,  -4.9262,   1
  1122,'ARKLOW      ', 220.0000,1,     0.000,     0.000,   6,   1,1.06895,  -4.1858,   1
  1131,'ATHEA       ', 110.0000,1,     0.000,     0.000,   7,   1,1.04993,   3.7331,   4
  1141,'ATHLONE     ', 110.0000,1,     0.000,     0.000,   9,   1,1.05656,  -4.6781,   1
  1151,'ATHEA-2     ', 110.0000,1,     0.000,     0.000,   7,   1,1.04993,   3.7331,   1
  1161,'AUGHINIS    ', 110.0000,1,     0.000,     0.000,   7,   1,1.05000,   0.7401,   1
  1181,'ARVA        ', 110.0000,1,     0.000,     0.000,  10,   1,1.04140,  -9.8271,   1
  1201,'ARTANE      ', 110.0000,1,     0.000,     0.000,   1,   1,1.05837,  -7.6775,   2
  1211,'BALLYVOU    ', 110.0000,1,     0.000,     0.000,   3,   1,1.04867,   2.3789,   1
  1212,'BALLYVOU    ', 220.0000,1,     0.000,     0.000,   3,   1,1.05602,   1.5041,   1
  1221,'ATHY        ', 110.0000,1,     0.000,     0.000,   8,   1,1.06436,  -5.4295,   1
  1231,'BALLYWAT    ', 110.0000,1,     0.000,     0.000,   6,   1,1.06696,  -4.1757,   4
  1251,'BOOLTIAG    ', 110.0000,1,     0.000,     0.000,   4,   1,1.05821,  -2.0293,   2
  1271,'BALTRASN    ', 110.0000,1,     0.000,     0.000,  10,   1,1.04810,  -8.4792,   1
  1281,'BALLYLIC    ', 110.0000,1,     0.000,     0.000,   3,   1,1.04278,  -3.0384,   2
  1301,'BALLYBEG    ', 110.0000,1,     0.000,     0.000,   6,   1,1.06587,  -5.6574,   1
  1311,'CORDAL      ', 110.0000,1,     0.000,     0.000,   3,   1,1.05269,   3.5755,   1
  1321,'BLAKE       ', 110.0000,1,     0.000,     0.000,   8,   1,1.05659,  -6.6328,   2
  1341,'BINBANE     ', 110.0000,1,     0.000,     0.000,   9,   1,1.03665, -10.7753,   2
  1351,'BARODA      ', 110.0000,1,     0.000,     0.000,   8,   1,1.05618,  -6.8237,   1
  1361,'BALLYDIN    ', 110.0000,1,     0.000,     0.000,   5,   1,1.04749,  -6.1344,   1
  1381,'BARNAHEL    ', 110.0000,1,     0.000,     0.000,   3,   1,1.03836,  -3.4901,   1
  1391,'BARNAHEL    ', 110.0000,1,     0.000,     0.000,   3,   1,1.03794,  -3.6462,   1
  1401,'BELLACOR    ', 110.0000,1,     0.000,     0.000,   9,   1,1.04370,  -7.4592,   1
  1421,'BLACKROC    ', 110.0000,1,     0.000,     0.000,   1,   1,1.05825,  -7.8698,   2
  1431,'BALLYRAG    ', 110.0000,1,     0.000,     0.000,   6,   1,1.05725,  -6.3443,   1
  1441,'BANDON      ', 110.0000,1,     0.000,     0.000,   3,   1,1.02879,  -4.6143,   1
  1451,'CLOGHRAN    ', 110.0000,1,     0.000,     0.000,   1,   1,1.05456,  -7.8592,   1
  1461,'BARRYMOR    ', 110.0000,1,     0.000,     0.000,   5,   1,1.04389,  -4.4925,   2
  1471,'BELCAMP     ', 110.0000,1,     0.000,     0.000,   1,   1,1.07170,  -7.7927,   2
  1472,'BELCAMP     ', 220.0000,1,     0.000,     0.000,   1,   1,1.07673,  -5.5778,   2
  1481,'BUTLERST    ', 110.0000,1,     0.000,     0.000,   5,   1,1.05588,  -5.1894,   1
  1492,'BALLAKEL    ', 220.0000,1,     0.000,     0.000,  10,   1,1.04781,  -6.1060,   1
  1501,'BRINNY      ', 110.0000,1,     0.000,     0.000,   3,   1,1.02859,  -4.6272,   5
  1511,'KNOCKNAG    ', 110.0000,1,     0.000,     0.000,   7,   1,1.05000,   4.0253,   1
  1541,'BANOGE      ', 110.0000,1,     0.000,     0.000,   6,   1,1.06451,  -4.9179,   1
  1551,'BOGGERAG    ', 110.0000,1,     0.000,     0.000,   3,   1,1.05000,   3.1047,   1
  1571,'ARDNAGAP    ', 110.0000,1,     0.000,     0.000,   9,   1,1.01886, -11.9484,   2
  1581,'CABRA       ', 110.0000,1,     0.000,     0.000,   1,   1,1.05781,  -7.7133,   2
  1601,'CLASHAVO    ', 110.0000,1,     0.000,     0.000,   3,   1,1.04277,  -2.8506,   1
  1602,'CLASHAVO    ', 220.0000,1,     0.000,     0.000,   3,   1,1.05223,   0.5349,   1
  1611,'CLONKEEN    ', 110.0000,1,     0.000,     0.000,   7,   1,1.03900,  -3.3391,   1
  1621,'COOLROE     ', 110.0000,1,     0.000,     0.000,   3,   1,1.03454,  -4.1169,   1
  1631,'CORDERRY    ', 110.0000,1,     0.000,     0.000,   9,   1,1.05000,  -6.9013,   1
  1641,'CASHLA      ', 110.0000,1,     0.000,     0.000,   9,   1,1.06839,  -2.3927,   1
  1642,'CASHLA      ', 220.0000,1,     0.000,     0.000,   9,   1,1.06710,  -0.2799,   1
  1651,'CLAHANE     ', 110.0000,1,     0.000,     0.000,   7,   1,1.05482,  -1.7237,   1
  1661,'CASTLEBA    ', 110.0000,1,     0.000,     0.000,   9,   1,1.05000,  -7.0343,   1
  1681,'CARRIGAD    ', 110.0000,1,     0.000,     0.000,   3,   1,1.03907,  -3.3773,   1
  1691,'CENTRAL     ', 110.0000,1,     0.000,     0.000,   1,   1,1.05877,  -7.7939,   1
  1701,'CATH_FAL    ', 110.0000,1,     0.000,     0.000,   9,   1,1.04955,  -9.7948,   1
  1711,'CROMCAST    ', 110.0000,1,     0.000,     0.000,   1,   1,1.07082,  -7.8684,   1
  1721,'CAHIR       ', 110.0000,1,     0.000,     0.000,   5,   1,1.05746,  -6.0960,   1
  1731,'CROMCAST    ', 110.0000,1,     0.000,     0.000,   1,   1,1.07082,  -7.8684,   1
  1741,'CARRICKM    ', 110.0000,1,     0.000,     0.000,   2,   1,1.05892,  -7.7477,   1
  1742,'CARRICKM    ', 220.0000,1,     0.000,     0.000,   2,   1,1.06975,  -5.1788,   1
  1761,'CLIFF       ', 110.0000,1,     0.000,     0.000,   9,   1,1.04957,  -9.7951,   1
  1781,'CASTLEFA    ', 110.0000,1,     0.000,     0.000,   7,   1,1.04960,   0.7193,   5
  1791,'BRACKLON    ', 110.0000,1,     0.000,     0.000,   8,   1,1.05533,  -6.0943,   1
  1801,'COOKSTOW    ', 110.0000,1,     0.000,     0.000,   1,   1,1.06403,  -6.2266,   2
  1821,'CLOON       ', 110.0000,1,     0.000,     0.000,   9,   1,1.05763,  -4.2872,   1
  1831,'SCREEB      ', 110.0000,1,     0.000,     0.000,   9,   1,1.05254,  -3.5669,   2
  1841,'CRANE       ', 110.0000,1,     0.000,     0.000,   6,   1,1.06565,  -4.3655,   1
  1851,'CHERRYWO    ', 110.0000,1,     0.000,     0.000,   2,   1,1.05611,  -7.8962,   1
  1861,'CARICKON    ', 110.0000,1,     0.000,     0.000,   9,   1,1.04789,  -7.0190,   1
  1871,'COLLEGE     ', 110.0000,1,     0.000,     0.000,   2,   1,1.05675,  -7.6827,   1
  1881,'CHARLEVI    ', 110.0000,1,     0.000,     0.000,   3,   1,1.02593,  -5.0404,   1
  1891,'CAULSTOW    ', 110.0000,1,     0.000,     0.000,  10,   1,1.03970,  -9.1199,   1
  1901,'CARLOW      ', 110.0000,1,     0.000,     0.000,   6,   1,1.07321,  -5.5357,   1
  1911,'CUILLEEN    ', 110.0000,1,     0.000,     0.000,   9,   1,1.05660,  -4.6791,   1
  1921,'COW CROS    ', 110.0000,1,     0.000,     0.000,   3,   1,1.03815,  -3.5481,   1
  1931,'CUNGHILL    ', 110.0000,1,     0.000,     0.000,   9,   1,1.05010,  -7.3175,   4
  1941,'CUSHALIN    ', 110.0000,1,     0.000,     0.000,   8,   1,1.07500,  -3.2221,   1
  1951,'CARROWBE    ', 110.0000,1,     0.000,     0.000,   9,   1,1.03714,  -7.9344,   1
  1961,'CASTLEVI    ', 110.0000,1,     0.000,     0.000,   3,   1,1.03715,  -3.7767,   1
  1971,'COOMAGEA    ', 110.0000,1,     0.000,     0.000,   7,   1,1.05000,   3.7380,   4
  1981,'CORRACLA    ', 110.0000,1,     0.000,     0.000,   9,   1,1.04028, -11.3959,   1
  1991,'CASTLEDO    ', 110.0000,1,     0.000,     0.000,   6,   1,1.06743,  -3.6523,   1
  2001,'CULLENAG    ', 110.0000,1,     0.000,     0.000,   5,   1,1.05874,  -4.7969,   1
  2002,'CULLENAG    ', 220.0000,1,     0.000,     0.000,   5,   1,1.06870,  -1.9485,   1
  2011,'KNOCKNAG    ', 110.0000,1,     0.000,     0.000,   3,   1,1.03907,  -3.3773,   1
  2021,'CITY WES    ', 110.0000,1,     0.000,     0.000,   1,   1,1.03786, -10.1594,   2
  2041,'CORDUFF     ', 110.0000,1,     0.000,     0.000,   2,   1,1.05727,  -7.6026,   1
  2042,'CORDUFF     ', 220.0000,1,     0.000,     0.000,   2,   1,1.07500,  -5.0063,   1
  2051,'BLACKPOO    ', 110.0000,1,     0.000,     0.000,   3,   1,1.03288,  -4.3445,   1
  2052,'CORDUFFB    ', 220.0000,1,     0.000,     0.000,   2,   1,1.07500,  -5.0063,   1
  2081,'DUNKETTL    ', 110.0000,4,     0.000,     0.000,   3,   1,1.00000,   0.0000,   5
  2090,'WEST GAL    ', 110.0000,1,     0.000,     0.000,   9,   1,1.05489,  -1.3363,   1
  2091,'WEST GAL    ', 110.0000,1,     0.000,     0.000,   9,   1,1.05944,  -3.0583,   1
  2101,'DUNDALK     ', 110.0000,1,     0.000,     0.000,  10,   1,1.04533,  -8.8244,   2
  2111,'UGOOL       ', 110.0000,1,     0.000,     0.000,   9,   1,1.05000,  -0.6668,   1
  2121,'DRUMLINE    ', 110.0000,1,     0.000,     0.000,   4,   1,1.04518,  -4.3278,   1
  2131,'DROMADA     ', 110.0000,1,     0.000,     0.000,   3,   1,1.05000,   3.8235,   1
  2141,'DUNGARVA    ', 110.0000,1,     0.000,     0.000,   5,   1,1.04332,  -5.4818,   1
  2161,'DOON        ', 110.0000,1,     0.000,     0.000,   5,   1,1.04878,  -6.4300,   1
  2181,'DRYBRIDG    ', 110.0000,1,     0.000,     0.000,  10,   1,1.03980,  -9.1485,   1
  2202,'DUNSTOWN    ', 220.0000,1,     0.000,     0.000,   2,   1,1.07702,  -4.0863,   1
  2204,'DUNSTOWN    ', 380.0000,1,     0.000,     0.000,   2,   1,1.05553,  -2.4550,   1
  2221,'DUNMANWA    ', 110.0000,1,     0.000,     0.000,   3,   1,1.03767,  -3.5710,   1
  2231,'DERRYBRI    ', 110.0000,1,     0.000,     0.000,   4,   1,1.06275,  -1.6904,   2
  2241,'DALLOW      ', 110.0000,1,     0.000,     0.000,   5,   1,1.06514,  -3.6257,   2
  2251,'DARDISTO    ', 110.0000,1,     0.000,     0.000,   1,   1,1.07083,  -7.8689,   2
  2261,'DERRYIRO    ', 110.0000,1,     0.000,     0.000,   8,   1,1.04966,  -6.5128,   1
  2281,'DALTON      ', 110.0000,1,     0.000,     0.000,   9,   1,1.04945,  -5.5764,   1
  2301,'DUNFIRTH    ', 110.0000,1,     0.000,     0.000,   8,   1,1.05140,  -7.2927,   2
  2321,'DRUMKEEN    ', 110.0000,1,     0.000,     0.000,   9,   1,1.04583, -11.0696,   1
  2361,'ENNIS       ', 110.0000,1,     0.000,     0.000,   4,   1,1.04951,  -3.5584,   1
  2391,'KILL HIL    ', 110.0000,1,     0.000,     0.000,   5,   1,1.05916,  -5.6265,   1
  2401,'MOUNTLUC    ', 110.0000,1,     0.000,     0.000,   8,   1,1.05783,  -3.7121,   1
  2411,'KNOCKMUL    ', 110.0000,1,     0.000,     0.000,   6,   1,1.05903,  -4.9454,   1
  2481,'FASS EAS    ', 110.0000,1,     0.000,     0.000,   2,   1,1.05904,  -6.3750,   2
  2491,'FASS WES    ', 110.0000,1,     0.000,     0.000,   2,   1,1.05928,  -6.3640,   2
  2521,'FLAGFORD    ', 110.0000,1,     0.000,     0.000,   9,   1,1.04923,  -6.8444,   1
  2522,'FLAGFORD    ', 220.0000,1,     0.000,     0.000,   9,   1,1.05453,  -5.0124,   1
  2541,'FRN ST A    ', 110.0000,1,     0.000,     0.000,   1,   1,1.07289,  -6.6978,   2
  2551,'FRN ST B    ', 110.0000,1,     0.000,     0.000,   1,   1,1.06872,  -7.8521,   2
  2561,'FIN_URBA    ', 110.0000,1,     0.000,     0.000,   2,   1,1.05994,  -7.5568,   2
  2562,'FINGLAS     ', 220.0000,1,     0.000,     0.000,   2,   1,1.07599,  -5.3432,   1
  2563,'FINGLAS2    ', 220.0000,1,     0.000,     0.000,   2,   1,1.07599,  -5.3432,   1
  2571,'FIN_RURA    ', 110.0000,1,     0.000,     0.000,   2,   1,1.07050,  -7.7913,   2
  2581,'KILDONAN    ', 110.0000,1,     0.000,     0.000,   2,   1,1.05598,  -7.7652,   2
  2671,'GARVAGH     ', 110.0000,1,     0.000,     0.000,   9,   1,1.05008,  -6.7031,   4
  2681,'GILRA       ', 110.0000,1,     0.000,     0.000,   9,   1,1.05121,  -7.1335,   2
  2701,'GLASMORE    ', 110.0000,1,     0.000,     0.000,   1,   1,1.05356,  -8.8827,   2
  2721,'GRIFFINR    ', 110.0000,1,     0.000,     0.000,   2,   1,1.06095,  -6.7930,   2
  2731,'GLANLEE     ', 110.0000,1,     0.000,     0.000,   7,   1,1.05005,   3.7560,   4
  2741,'GREAT IS    ', 110.0000,1,     0.000,     0.000,   6,   1,1.06338,  -4.6065,   1
  2742,'GREAT IS    ', 220.0000,1,     0.000,     0.000,   6,   1,1.07500,  -1.4409,   1
  2761,'GRANGE      ', 110.0000,1,     0.000,     0.000,   1,   1,1.07058,  -7.8842,   2
  2771,'GARROW      ', 110.0000,1,     0.000,     0.000,   7,   1,1.04848,   3.0771,   7
  2780,'GALWAY      ', 110.0000,1,     0.000,     0.000,   9,   1,1.06191,  -2.6192,   1
  2781,'GALWAY      ', 110.0000,1,     0.000,     0.000,   9,   1,1.06191,  -2.6192,   1
  2801,'GOLAGH      ', 110.0000,1,     0.000,     0.000,   9,   1,1.04758, -10.0281,   4
  2821,'GORTAWEE    ', 110.0000,1,     0.000,     0.000,   9,   1,1.03947, -11.4466,   1
  2841,'GORMAN      ', 110.0000,1,     0.000,     0.000,  10,   1,1.03968,  -8.9868,   1
  2842,'GORMAN      ', 220.0000,1,     0.000,     0.000,  10,   1,1.05315,  -6.4132,   1
  2852,'GLANAGOW    ', 220.0000,1,     0.000,     0.000,   3,   1,1.05179,  -0.9292,   1
  2861,'GRANGE C    ', 110.0000,1,     0.000,     0.000,   1,   1,1.03842,  -9.9814,   2
  2870,'CLOGHER     ', 110.0000,1,     0.000,     0.000,   9,   1,1.04894,  -9.9983,   1
  2871,'CLOGHER     ', 110.0000,1,     0.000,     0.000,   9,   1,1.04894,  -9.9983,   1
  2881,'GLENLARA    ', 110.0000,1,     0.000,     0.000,   3,   1,1.02019,  -5.2199,   2
  2941,'HAROLDS     ', 110.0000,1,     0.000,     0.000,   1,   1,1.07320,  -6.7013,   2
  2951,'HEUSTON     ', 110.0000,1,     0.000,     0.000,   1,   1,1.06892,  -7.8372,   2
  2962,'HUNTSTOW    ', 220.0000,1,     0.000,     0.000,   2,   1,1.07600,  -5.3433,   4
  2972,'HUNTSTOW    ', 220.0000,1,     0.000,     0.000,   2,   1,1.07416,  -4.7036,   4
  2981,'HARTNETT    ', 110.0000,1,     0.000,     0.000,   3,   1,1.03847,  -3.3588,   2
  3061,'INISCARR    ', 110.0000,1,     0.000,     0.000,   3,   1,1.03522,  -4.0107,   1
  3081,'INCH_CIT    ', 110.0000,1,     0.000,     0.000,   2,   1,1.06927,  -7.7987,   2
  3082,'INCHICOR    ', 220.0000,1,     0.000,     0.000,   2,   1,1.07451,  -5.8815,   1
  3091,'INCH_COU    ', 110.0000,1,     0.000,     0.000,   2,   1,1.04338,  -9.7770,   2
  3101,'IKERRIN     ', 110.0000,1,     0.000,     0.000,   5,   1,1.05317,  -5.4054,   2
  3122,'IRISHTOW    ', 220.0000,1,     0.000,     0.000,   2,   1,1.07500,  -5.1706,   1
  3190,'NORTH KE    ', 110.0000,1,     0.000,     0.000,   7,   1,1.05423,  -1.5254,   1
  3191,'NORTH KE    ', 110.0000,1,     0.000,     0.000,   7,   1,1.05328,   3.1012,   1
  3192,'NORTH KE    ', 220.0000,1,     0.000,     0.000,   7,   1,1.07059,   1.7142,   1
  3194,'NORTH KE    ', 380.0000,1,     0.000,     0.000,   7,   1,1.07441,   2.3050,   1
  3200,'KNOCKRAH    ', 110.0000,1,     0.000,     0.000,   3,   1,1.05114,  -1.0673,   1
  3201,'KNOCKRAH    ', 110.0000,1,     0.000,     0.000,   3,   1,1.04206,  -3.5594,   1
  3202,'KNOCKRAH    ', 220.0000,1,     0.000,     0.000,   3,   1,1.05114,  -1.0673,   1
  3203,'KNOCKRAH    ', 220.0000,1,     0.000,     0.000,   3,   1,1.05114,  -1.0673,   1
  3209,'KNOCKRAH    ', 110.0000,1,     0.000,     0.000,   3,   1,1.04206,  -3.5594,   1
  3211,'KNOCKAVA    ', 110.0000,1,     0.000,     0.000,   4,   1,1.06228,  -1.7552,   1
  3221,'KILBARRY    ', 110.0000,1,     0.000,     0.000,   3,   1,1.03292,  -4.3420,   1
  3241,'KILTEEL     ', 110.0000,1,     0.000,     0.000,   8,   1,1.06234,  -7.4891,   2
  3251,'REAMORE     ', 110.0000,1,     0.000,     0.000,   7,   1,1.05518,  -1.9318,   1
  3261,'KILKENNY    ', 110.0000,1,     0.000,     0.000,   6,   1,1.06126,  -6.7292,   1
  3281,'KILLONAN    ', 110.0000,1,     0.000,     0.000,   7,   1,1.04557,  -3.7595,   1
  3282,'KILLONAN    ', 220.0000,1,     0.000,     0.000,   7,   1,1.05746,  -2.1416,   1
  3301,'KNOCKERA    ', 110.0000,1,     0.000,     0.000,   7,   1,1.03586,  -3.6680,   1
  3321,'KNOCKUMB    ', 110.0000,1,     0.000,     0.000,  10,   1,1.03111,  -9.5116,   5
  3330,'BALLYNAH    ', 110.0000,1,     0.000,     0.000,   3,   1,1.05160,   3.1254,   1
  3331,'BALLYNAH    ', 110.0000,1,     0.000,     0.000,   3,   1,1.05160,   3.1254,   1
  3332,'BALLYNAH    ', 220.0000,1,     0.000,     0.000,   3,   1,1.05945,   1.8896,   1
  3341,'KELLIS      ', 110.0000,1,     0.000,     0.000,   6,   1,1.07756,  -5.4405,   1
  3342,'KELLIS      ', 220.0000,1,     0.000,     0.000,   6,   1,1.06555,  -3.6385,   1
  3361,'KILTOY      ', 110.0000,1,     0.000,     0.000,   9,   1,1.04101, -11.7400,   5
  3381,'KINNEGAD    ', 110.0000,1,     0.000,     0.000,   8,   1,1.04754,  -7.1201,   1
  3391,'KNOCKACU    ', 110.0000,1,     0.000,     0.000,   3,   1,1.05000,   4.1964,   1
  3401,'KILLOTER    ', 110.0000,1,     0.000,     0.000,   5,   1,1.05643,  -5.1505,   1
  3421,'KILMORE     ', 110.0000,1,     0.000,     0.000,   1,   1,1.07081,  -7.8680,   2
  3431,'KILMAHUD    ', 110.0000,1,     0.000,     0.000,   1,   1,1.03815,  -9.9989,   1
  3461,'KILPADDO    ', 110.0000,1,     0.000,     0.000,   7,   1,1.05949,  -1.0273,   1
  3462,'KILPADDO    ', 220.0000,1,     0.000,     0.000,   7,   1,1.07395,   0.7663,   1
  3472,'KILPADDO    ', 220.0000,1,     0.000,     0.000,   7,   1,1.07395,   0.7663,   1
  3501,'LANESBOR    ', 110.0000,1,     0.000,     0.000,   9,   1,1.05000,  -4.7373,   1
  3521,'LOUTHA      ', 110.0000,1,     0.000,     0.000,  10,   1,1.05995,  -8.2280,   1
  3522,'LOUTH       ', 220.0000,1,     0.000,     0.000,  10,   1,1.04779,  -6.1059,   1
  3541,'LIMERICK    ', 110.0000,1,     0.000,     0.000,   7,   1,1.04044,  -3.7562,   1
  3551,'LAOIS       ', 110.0000,1,     0.000,     0.000,   8,   1,1.06326,  -4.8971,   1
  3554,'LAOIS       ', 380.0000,1,     0.000,     0.000,   8,   1,1.06311,  -1.6858,   1
  3561,'LISDRUM     ', 110.0000,1,     0.000,     0.000,  10,   1,1.04670, -10.0616,   1
  3581,'LETTERKE    ', 110.0000,1,     0.000,     0.000,   9,   1,1.04100, -11.7397,   1
  3601,'LIBERTY     ', 110.0000,1,     0.000,     0.000,   3,   1,1.03219,  -4.3986,   2
  3611,'LIBERTY     ', 110.0000,1,     0.000,     0.000,   3,   1,1.03237,  -4.3873,   2
  3621,'LISHEEN     ', 110.0000,1,     0.000,     0.000,   5,   1,1.05000,  -5.4746,   5
  3641,'LODGEWOO    ', 110.0000,1,     0.000,     0.000,   6,   1,1.06782,  -3.7236,   1
  3642,'LODGEWOO    ', 220.0000,1,     0.000,     0.000,   6,   1,1.07113,  -3.1256,   1
  3651,'CRORY       ', 110.0000,1,     0.000,     0.000,   5,   1,1.06782,  -3.7236,   1
  3751,'MISERY H    ', 110.0000,1,     0.000,     0.000,   1,   1,1.07351,  -6.6844,   2
  3761,'MACETOWN    ', 110.0000,1,     0.000,     0.000,   1,   1,1.05518,  -7.8057,   1
  3781,'MCDERMOT    ', 110.0000,1,     0.000,     0.000,   1,   1,1.05767,  -7.7062,   2
  3801,'MIDLETON    ', 110.0000,1,     0.000,     0.000,   3,   1,1.03943,  -3.5916,   1
  3821,'MEATH HI    ', 110.0000,1,     0.000,     0.000,  10,   1,1.04197,  -8.5844,   2
  3841,'MAYNOOTH    ', 110.0000,1,     0.000,     0.000,   2,   1,1.06239,  -6.7015,   1
  3842,'MAYNOOTH    ', 220.0000,1,     0.000,     0.000,   2,   1,1.06992,  -5.4113,   1
  3851,'MAYNOOTH    ', 110.0000,1,     0.000,     0.000,   2,   1,1.05939,  -6.9675,   1
  3852,'MAYNOOTH    ', 220.0000,1,     0.000,     0.000,   2,   1,1.07415,  -4.9902,   1
  3861,'MILLTOWN    ', 110.0000,1,     0.000,     0.000,   1,   1,1.07496,  -6.6209,   2
  3871,'MILLTOWN    ', 110.0000,1,     0.000,     0.000,   1,   1,1.06671,  -7.9244,   2
  3881,'MACROOM     ', 110.0000,1,     0.000,     0.000,   3,   1,1.03951,  -3.3043,   1
  3901,'MONETEEN    ', 110.0000,1,     0.000,     0.000,   7,   1,1.03995,  -3.0037,   1
  3934,'MNYPG1      ', 380.0000,1,     0.000,     6.000,   4,   1,1.07506,   2.4339,   1
  3941,'MONEYPOI    ', 110.0000,1,     0.000,     0.000,   4,   1,1.06987,  -0.8359,   1
  3942,'MONEYPOI    ', 220.0000,1,     0.000,     0.000,   4,   1,1.07590,   0.8719,   1
  3944,'MNYPG3      ', 380.0000,1,     0.000,     6.000,   4,   1,1.07500,   2.4246,   1
  3954,'MNYPG2      ', 380.0000,1,     0.000,     6.000,   4,   1,1.07500,   2.4246,   1
  3961,'MARINA      ', 110.0000,1,     0.000,     0.000,   3,   1,1.03255,  -4.3758,   1
  3981,'MUNGRET     ', 110.0000,1,     0.000,     0.000,   7,   1,1.03973,  -3.0169,   5
  3991,'MUNGRET     ', 110.0000,1,     0.000,     0.000,   7,   1,1.03974,  -3.0162,   5
  4001,'MULLINGA    ', 110.0000,1,     0.000,     0.000,   9,   1,1.04553,  -7.5249,   1
  4021,'MALLOW      ', 110.0000,1,     0.000,     0.000,   3,   1,1.02499,  -5.1252,   1
  4041,'MOY         ', 110.0000,1,     0.000,     0.000,   9,   1,1.04453,  -7.5158,   1
  4061,'MULLAGHA    ', 110.0000,1,     0.000,     0.000,  10,   1,1.04605,  -8.8455,   2
  4071,'MEENTYCA    ', 110.0000,1,     0.000,     0.000,   9,   1,1.04742, -10.8334,   4
  4081,'MONREAD     ', 110.0000,1,     0.000,     0.000,   8,   1,1.05910,  -7.2653,   1
  4091,'MULREAVY    ', 110.0000,1,     0.000,     0.000,   9,   1,1.05000,  -9.8354,   1
  4101,'NEWBURY     ', 110.0000,1,     0.000,     0.000,   1,   1,1.07068,  -7.8798,   2
  4111,'BANCROFT    ', 110.0000,1,     0.000,     0.000,   1,   1,1.06310,  -6.2003,   2
  4201,'NEWBRIDG    ', 110.0000,1,     0.000,     0.000,   8,   1,1.05671,  -6.3469,   1
  4211,'NORTH QU    ', 110.0000,1,     0.000,     0.000,   1,   1,1.07488,  -6.6181,   2
  4221,'NAVAN       ', 110.0000,1,     0.000,     0.000,  10,   1,1.03616,  -9.2384,   1
  4242,'NORTH WA    ', 220.0000,1,     0.000,     0.000,   2,   1,1.07766,  -5.3877,   1
  4251,'NORE        ', 110.0000,1,     0.000,     0.000,   6,   1,1.06137,  -6.7319,   1
  4261,'NENAGH      ', 110.0000,1,     0.000,     0.000,   7,   1,1.01926,  -4.8007,   2
  4281,'NANGOR      ', 110.0000,1,     0.000,     0.000,   1,   1,1.03823,  -9.9936,   2
  4341,'OLDCOURT    ', 110.0000,1,     0.000,     0.000,   3,   1,1.03808,  -3.5528,   5
  4351,'OLDCOURT    ', 110.0000,1,     0.000,     0.000,   3,   1,1.03815,  -3.5482,   5
  4361,'OUGHTRAG    ', 110.0000,1,     0.000,     0.000,   7,   1,1.04100,  -3.1747,   2
  4371,'GLENREE     ', 110.0000,1,     0.000,     0.000,   9,   1,1.05000,  -7.1629,   1
  4382,'OLDSTREE    ', 220.0000,1,     0.000,     0.000,   4,   1,1.07057,   2.8921,   1
  4384,'OLDSTREE    ', 380.0000,1,     0.000,     0.000,   4,   1,1.06443,   1.5117,   1
  4401,'POPPINTR    ', 110.0000,1,     0.000,     0.000,   1,   1,1.07043,  -7.8456,   2
  4441,'POLLAPHU    ', 110.0000,1,     0.000,     0.000,   6,   1,1.06584,  -5.9560,   1
  4461,'POOLBEG     ', 110.0000,1,     0.000,     0.000,   2,   1,1.07512,  -6.5858,   2
  4462,'POOLBEG     ', 220.0000,1,     0.000,     0.000,   2,   1,1.07760,  -5.3978,   1
  4471,'POOLBEG     ', 110.0000,1,     0.000,     0.000,   2,   1,1.07511,  -6.5864,   2
  4472,'POOLBEG     ', 220.0000,1,     0.000,     0.000,   2,   1,1.07625,  -5.9988,   1
  4481,'PORTLAOI    ', 110.0000,1,     0.000,     0.000,   8,   1,1.05940,  -5.1657,   1
  4491,'PELLETST    ', 110.0000,1,     0.000,     0.000,   1,   1,1.05851,  -7.6703,   2
  4501,'PLATIN      ', 110.0000,1,     0.000,     0.000,  10,   1,1.03924,  -9.1582,   1
  4511,'POTTERY     ', 110.0000,1,     0.000,     0.000,   1,   1,1.05863,  -7.8061,   2
  4522,'PROSPECT    ', 220.0000,1,     0.000,     0.000,   7,   1,1.07528,   0.7550,   1
  4611,'RALAPPAN    ', 110.0000,1,     0.000,     0.000,   7,   1,1.05763,  -1.1903,   1
  4621,'RYEBROOK    ', 110.0000,1,     0.000,     0.000,   2,   1,1.04704,  -8.0517,   1
  4651,'RINGSEND    ', 110.0000,1,     0.000,     0.000,   1,   1,1.07500,  -6.6053,   2
  4681,'RATHKEAL    ', 110.0000,1,     0.000,     0.000,   7,   1,1.04254,  -2.5670,   1
  4701,'RICHMOND    ', 110.0000,1,     0.000,     0.000,   9,   1,1.04494,  -4.9990,   2
  4711,'RICHMOND    ', 110.0000,1,     0.000,     0.000,   9,   1,1.04494,  -4.9990,   1
  4721,'RAFFEEN     ', 110.0000,1,     0.000,     0.000,   3,   1,1.03910,  -3.4448,   1
  4722,'RAFFEEN     ', 220.0000,1,     0.000,     0.000,   3,   1,1.05030,  -0.8858,   1
  4731,'RAFFEENB    ', 110.0000,1,     0.000,     0.000,   3,   1,1.03872,  -3.5891,   1
  4741,'RINAWADE    ', 110.0000,1,     0.000,     0.000,   2,   1,1.05585,  -7.1644,   1
  4761,'RINGASKI    ', 110.0000,1,     0.000,     0.000,   3,   1,1.03864,  -3.5971,   2
  4781,'RATRUSSA    ', 110.0000,1,     0.000,     0.000,  10,   1,1.05000,  -8.8452,   1
  4901,'SHELTON     ', 110.0000,1,     0.000,     0.000,   6,   1,1.07018,  -4.9338,   5
  4911,'SUIR        ', 110.0000,1,     0.000,     0.000,   5,   1,1.05756,  -6.0975,   4
  4941,'SHANNONB    ', 110.0000,1,     0.000,     0.000,   5,   1,1.07500,  -2.8453,   1
  4942,'SHANNONB    ', 220.0000,1,     0.000,     0.000,   5,   1,1.07283,  -3.2466,   1
  4943,'SHANNONB    ', 220.0000,1,     0.000,     0.000,   5,   1,1.07283,  -3.2466,   1
  4951,'SALTHILL    ', 110.0000,1,     0.000,     0.000,   9,   1,1.06109,  -2.7652,   2
  4961,'SHANKILL    ', 110.0000,1,     0.000,     0.000,  10,   1,1.04330, -10.0138,   1
  4981,'SLIGO       ', 110.0000,1,     0.000,     0.000,   9,   1,1.04518,  -7.7349,   1
  4991,'SORNE HI    ', 110.0000,1,     0.000,     0.000,   9,   1,1.02243, -10.7943,   2
  5001,'SOMERSET    ', 110.0000,1,     0.000,     0.000,   9,   1,1.06809,  -3.0363,   2
  5022,'SHELLYBA    ', 220.0000,1,     0.000,     0.000,   2,   1,1.07760,  -5.3963,   1
  5031,'STEPHENS    ', 110.0000,1,     0.000,     0.000,   1,   1,1.05814,  -8.7208,   2
  5041,'SRANANAG    ', 110.0000,1,     0.000,     0.000,   9,   1,1.04887,  -7.5557,   1
  5042,'SRANANAG    ', 220.0000,1,     0.000,     0.000,   9,   1,1.05154,  -6.0955,   1
  5051,'SEAL ROC    ', 110.0000,1,     0.000,     0.000,   7,   1,1.05045,   0.7893,   4
  5061,'STRATFOR    ', 110.0000,1,     0.000,     0.000,   6,   1,1.06459,  -5.9940,   2
  5071,'SEAL ROC    ', 110.0000,1,     0.000,     0.000,   7,   1,1.05045,   0.7893,   4
  5091,'SINGLAND    ', 110.0000,1,     0.000,     0.000,   7,   1,1.04527,  -3.9143,   1
  5122,'SHELLYBA    ', 220.0000,1,     0.000,     0.000,   2,   1,1.07499,  -5.1724,   1
  5131,'TANEY       ', 110.0000,1,     0.000,     0.000,   1,   1,1.05856,  -7.8283,   2
  5141,'TARBERT     ', 110.0000,1,     0.000,     0.000,   7,   1,1.07424,   0.7638,   1
  5142,'TARBERT     ', 220.0000,1,     0.000,     0.000,   7,   1,1.07424,   0.7638,   1
  5172,'TYNAGH      ', 220.0000,1,     0.000,     0.000,   4,   1,1.07500,   3.5124,   1
  5181,'TRABEG      ', 110.0000,1,     0.000,     0.000,   3,   1,1.03270,  -4.3487,   1
  5191,'TIEVEBRA    ', 110.0000,1,     0.000,     0.000,   9,   1,1.03357, -11.3640,   1
  5202,'TURLOUGH    ', 220.0000,1,     0.000,     0.000,   2,   1,1.07209,  -3.5200,   1
  5221,'TULLABRA    ', 110.0000,1,     0.000,     0.000,   4,   1,1.06677,  -1.1221,   2
  5222,'SHELLYBA    ', 220.0000,1,     0.000,     0.000,   2,   1,1.07499,  -5.1724,   1
  5231,'TRINITY     ', 110.0000,1,     0.000,     0.000,   1,   1,1.07311,  -6.7004,   2
  5241,'TAWNAGHM    ', 110.0000,1,     0.000,     0.000,   9,   1,1.04457,  -7.5169,   2
  5251,'TAWN_B      ', 110.0000,1,     0.000,     0.000,   9,   1,1.04457,  -7.5168,   2
  5261,'TRIEN       ', 110.0000,1,     0.000,     0.000,   7,   1,1.05252,  -1.6928,   1
  5271,'CAUTEEN     ', 110.0000,1,     0.000,     0.000,   5,   1,1.05000,  -4.5633,   1
  5281,'TRALEE      ', 110.0000,1,     0.000,     0.000,   7,   1,1.05493,  -2.1134,   1
  5301,'THURLES     ', 110.0000,1,     0.000,     0.000,   5,   1,1.05729,  -5.7741,   1
  5321,'THORNSBE    ', 110.0000,1,     0.000,     0.000,   8,   1,1.04874,  -5.4667,   2
  5341,'TONROE      ', 110.0000,1,     0.000,     0.000,   9,   1,1.03575,  -7.1674,   2
  5361,'TRILLICK    ', 110.0000,1,     0.000,     0.000,   9,   1,1.02259, -10.9753,   2
  5381,'TIPPERAR    ', 110.0000,1,     0.000,     0.000,   5,   1,1.05048,  -5.4060,   1
  5441,'WATERFOR    ', 110.0000,1,     0.000,     0.000,   5,   1,1.05749,  -5.0838,   1
  5462,'WOODLAND    ', 220.0000,1,     0.000,     0.000,   2,   1,1.07881,  -4.1084,   1
  5464,'WOODLAND    ', 380.0000,1,     0.000,     0.000,   2,   1,1.02774,  -1.0097,   1
  5481,'WHITEGAT    ', 110.0000,1,     0.000,     0.000,   3,   1,1.04229,  -3.0704,   1
  5501,'WEXFORD     ', 110.0000,1,     0.000,     0.000,   6,   1,1.06076,  -5.2610,   1
  5521,'WOLFE TO    ', 110.0000,1,     0.000,     0.000,   1,   1,1.05739,  -7.7241,   2
 10204,'ARDNACRU    ',  38.0000,1,     0.000,     0.000,   4,   1,1.06581,  -5.9473,   2
 10205,'ARDNACRU    ',  38.0000,1,     0.000,     0.000,   4,   1,1.06663,  -6.2779,   2
 10210,'ARDNACRU    ', 110.0000,1,     0.000,     0.000,   4,   1,1.04558,  -4.0363,   1
 10212,'KNOCKAST    ',  20.0000,1,     0.000,     0.000,   4,   1,1.01541,  -5.4461,   1
 10213,'MIENVEE     ',  20.0000,1,     0.000,     0.000,   4,   1,1.01519,  -6.6831,   1
 10261,'ARDNA_CA    ', 110.0000,1,     0.000,     0.000,   4,   1,1.04558,  -4.0363,   1