0,   100.00          / PSS/E-30.3    MON, NOV 18 2013  18:07
AITYTFS Summer Peak 2016

    10,'F_M         ',  38.0000,1,     0.000,     0.000,   2,   1,1.07037, -10.2858,   2
    11,'FMN LOOP    ',  38.0000,1,     0.000,     0.000,   2,   1,1.05495,  -9.3696,   2
    12,'BEDFORD     ',  38.0000,1,     0.000,     0.000,   1,   1,1.05514,  -7.0662,   2
    13,'M_R         ',  38.0000,1,     0.000,     0.000,   1,   1,1.07029,  -7.2996,   2
    14,'F_I         ',  38.0000,1,     0.000,     0.000,   2,   1,1.04670, -10.9570,   2
    15,'I_M         ',  38.0000,1,     0.000,     0.000,   2,   1,1.06217, -10.5935,   2
  1021,'ARDNACRU    ', 110.0000,1,     0.000,     0.000,   4,   1,1.05386,  -6.3964,   1
  1041,'AGHADA      ', 110.0000,1,     0.000,     0.000,   3,   1,1.06508,  -5.9939,   1
  1042,'AGHADA      ', 220.0000,1,     0.000,     0.000,   3,   1,1.07500,  -3.9022,   1
  1052,'AGHADA_B    ', 220.0000,1,     0.000,     0.000,   3,   1,1.07786,  -3.2498,   1
  1061,'ARIGNA      ', 110.0000,1,     0.000,     0.000,   9,   1,1.05101,  -8.1629,   2
  1062,'AGH_AT14    ', 220.0000,1,     0.000,     0.000,   3,   1,1.07500,  -3.9022,   1
  1071,'AGANNYGA    ', 110.0000,1,     0.000,     0.000,   4,   1,1.06247,  -4.6642,   1
  1072,'AGHT2102    ', 220.0000,1,     0.000,     0.000,   3,   1,1.07493,  -3.9119,   1
  1081,'AHANE       ', 110.0000,1,     0.000,     0.000,   7,   1,1.05628,  -6.1808,   2
  1091,'ADAMSTOW    ', 110.0000,1,     0.000,     0.000,   1,   1,1.04582, -10.0027,   2
  1101,'ANNER       ', 110.0000,1,     0.000,     0.000,   5,   1,1.05492,  -8.9257,   5
  1121,'ARKLOW      ', 110.0000,1,     0.000,     0.000,   6,   1,1.06984,  -6.1009,   1
  1122,'ARKLOW      ', 220.0000,1,     0.000,     0.000,   6,   1,1.06882,  -5.1449,   1
  1131,'ATHEA       ', 110.0000,1,     0.000,     0.000,   7,   1,1.04982,   1.1668,   4
  1141,'ATHLONE     ', 110.0000,1,     0.000,     0.000,   9,   1,1.05583,  -7.1484,   1
  1151,'ATHEA-2     ', 110.0000,1,     0.000,     0.000,   7,   1,1.04982,   1.1668,   1
  1161,'AUGHINIS    ', 110.0000,1,     0.000,     0.000,   7,   1,1.05000,  -1.7528,   1
  1181,'ARVA        ', 110.0000,1,     0.000,     0.000,  10,   1,1.04565, -10.6544,   1
  1201,'ARTANE      ', 110.0000,1,     0.000,     0.000,   1,   1,1.05802,  -7.2436,   2
  1211,'BALLYVOU    ', 110.0000,1,     0.000,     0.000,   3,   1,1.05094,  -0.3317,   1
  1212,'BALLYVOU    ', 220.0000,1,     0.000,     0.000,   3,   1,1.06190,  -1.1910,   1
  1221,'ATHY        ', 110.0000,1,     0.000,     0.000,   8,   1,1.05784,  -8.2883,   1
  1231,'BALLYWAT    ', 110.0000,1,     0.000,     0.000,   6,   1,1.06837,  -5.6847,   4
  1251,'BOOLTIAG    ', 110.0000,1,     0.000,     0.000,   4,   1,1.05933,  -4.2433,   2
  1271,'BALTRASN    ', 110.0000,1,     0.000,     0.000,  10,   1,1.04951,  -8.8282,   1
  1281,'BALLYLIC    ', 110.0000,1,     0.000,     0.000,   3,   1,1.05526,  -5.5345,   2
  1301,'BALLYBEG    ', 110.0000,1,     0.000,     0.000,   6,   1,1.06348,  -6.9423,   1
  1311,'CORDAL      ', 110.0000,1,     0.000,     0.000,   3,   1,1.05428,   0.8990,   1
  1321,'BLAKE       ', 110.0000,1,     0.000,     0.000,   8,   1,1.05578,  -8.3093,   2
  1341,'BINBANE     ', 110.0000,1,     0.000,     0.000,   9,   1,1.03874, -11.1807,   2
  1351,'BARODA      ', 110.0000,1,     0.000,     0.000,   8,   1,1.05537,  -8.7704,   1
  1361,'BALLYDIN    ', 110.0000,1,     0.000,     0.000,   5,   1,1.05368,  -8.5098,   1
  1381,'BARNAHEL    ', 110.0000,1,     0.000,     0.000,   3,   1,1.06027,  -6.3008,   1
  1391,'BARNAHEL    ', 110.0000,1,     0.000,     0.000,   3,   1,1.05971,  -6.3849,   1
  1401,'BELLACOR    ', 110.0000,1,     0.000,     0.000,   9,   1,1.04335,  -9.2695,   1
  1421,'BLACKROC    ', 110.0000,1,     0.000,     0.000,   1,   1,1.05802,  -7.7313,   2
  1441,'BANDON      ', 110.0000,1,     0.000,     0.000,   3,   1,1.04828,  -7.2209,   1
  1451,'CLOGHRAN    ', 110.0000,1,     0.000,     0.000,   1,   1,1.05586,  -8.0342,   1
  1461,'BARRYMOR    ', 110.0000,1,     0.000,     0.000,   5,   1,1.05807,  -7.4937,   2
  1481,'BUTLERST    ', 110.0000,1,     0.000,     0.000,   5,   1,1.06008,  -7.3758,   1
  1492,'BALLAKEL    ', 220.0000,1,     0.000,     0.000,  10,   1,1.04538,  -7.2545,   1
  1501,'BRINNY      ', 110.0000,1,     0.000,     0.000,   3,   1,1.04808,  -7.2333,   5
  1511,'KNOCKNAG    ', 110.0000,1,     0.000,     0.000,   7,   1,1.05000,   1.4581,   1
  1541,'BANOGE      ', 110.0000,1,     0.000,     0.000,   6,   1,1.06516,  -6.2661,   1
  1551,'BOGGERAG    ', 110.0000,1,     0.000,     0.000,   3,   1,1.05000,   0.3805,   1
  1571,'ARDNAGAP    ', 110.0000,1,     0.000,     0.000,   9,   1,1.02075, -12.2396,   2
  1581,'CABRA       ', 110.0000,1,     0.000,     0.000,   1,   1,1.05746,  -7.2787,   2
  1601,'CLASHAVO    ', 110.0000,1,     0.000,     0.000,   3,   1,1.05681,  -5.4238,   1
  1602,'CLASHAVO    ', 220.0000,1,     0.000,     0.000,   3,   1,1.06224,  -2.1946,   1
  1611,'CLONKEEN    ', 110.0000,1,     0.000,     0.000,   7,   1,1.05175,  -5.6143,   1
  1621,'COOLROE     ', 110.0000,1,     0.000,     0.000,   3,   1,1.05242,  -6.7635,   1
  1631,'CORDERRY    ', 110.0000,1,     0.000,     0.000,   9,   1,1.05444,  -8.1072,   1
  1641,'CASHLA      ', 110.0000,1,     0.000,     0.000,   9,   1,1.06764,  -4.4316,   1
  1642,'CASHLA      ', 220.0000,1,     0.000,     0.000,   9,   1,1.06627,  -2.1893,   1
  1651,'CLAHANE     ', 110.0000,1,     0.000,     0.000,   7,   1,1.06240,  -3.4828,   1
  1661,'CASTLEBA    ', 110.0000,1,     0.000,     0.000,   9,   1,1.05000,  -9.1739,   1
  1681,'CARRIGAD    ', 110.0000,1,     0.000,     0.000,   3,   1,1.05463,  -5.9793,   1
  1691,'CENTRAL     ', 110.0000,1,     0.000,     0.000,   1,   1,1.05853,  -7.6568,   1
  1701,'CATH_FAL    ', 110.0000,1,     0.000,     0.000,   9,   1,1.05180, -10.3825,   1
  1711,'CROMCAST    ', 110.0000,1,     0.000,     0.000,   1,   1,1.07210,  -8.6386,   1
  1721,'CAHIR       ', 110.0000,1,     0.000,     0.000,   5,   1,1.06533,  -8.6514,   1
  1731,'CROMCAST    ', 110.0000,1,     0.000,     0.000,   1,   1,1.07210,  -8.6386,   1
  1741,'CARRICKM    ', 110.0000,1,     0.000,     0.000,   2,   1,1.05867,  -7.6113,   1
  1742,'CARRICKM    ', 220.0000,1,     0.000,     0.000,   2,   1,1.06915,  -5.3148,   1
  1761,'CLIFF       ', 110.0000,1,     0.000,     0.000,   9,   1,1.05182, -10.3828,   1
  1781,'CASTLEFA    ', 110.0000,1,     0.000,     0.000,   7,   1,1.04960,  -1.7737,   5
  1791,'BRACKLON    ', 110.0000,1,     0.000,     0.000,   8,   1,1.05309,  -8.5528,   1
  1801,'COOKSTOW    ', 110.0000,1,     0.000,     0.000,   1,   1,1.05879,  -7.6879,   2
  1821,'CLOON       ', 110.0000,1,     0.000,     0.000,   9,   1,1.05722,  -6.2684,   1
  1831,'SCREEB      ', 110.0000,1,     0.000,     0.000,   9,   1,1.05625,  -5.6630,   2
  1841,'CRANE       ', 110.0000,1,     0.000,     0.000,   6,   1,1.06705,  -5.8738,   1
  1851,'CHERRYWO    ', 110.0000,1,     0.000,     0.000,   2,   1,1.05590,  -7.7583,   1
  1861,'CARICKON    ', 110.0000,1,     0.000,     0.000,   9,   1,1.05091,  -8.3142,   1
  1871,'COLLEGE     ', 110.0000,1,     0.000,     0.000,   2,   1,1.05803,  -7.8586,   1
  1881,'CHARLEVI    ', 110.0000,1,     0.000,     0.000,   3,   1,1.04113,  -7.5234,   1
  1891,'CAULSTOW    ', 110.0000,1,     0.000,     0.000,  10,   1,1.04124,  -9.6527,   1
  1901,'CARLOW      ', 110.0000,1,     0.000,     0.000,   6,   1,1.07035,  -7.7345,   1
  1911,'CUILLEEN    ', 110.0000,1,     0.000,     0.000,   9,   1,1.05587,  -7.1494,   1
  1921,'COW CROS    ', 110.0000,1,     0.000,     0.000,   3,   1,1.05934,  -6.4112,   1
  1931,'CUNGHILL    ', 110.0000,1,     0.000,     0.000,   9,   1,1.05420,  -8.6904,   4
  1941,'CUSHALIN    ', 110.0000,1,     0.000,     0.000,   8,   1,1.07500,  -6.2915,   1
  1951,'CARROWBE    ', 110.0000,1,     0.000,     0.000,   9,   1,1.03750, -10.0571,   1
  1961,'CASTLEVI    ', 110.0000,1,     0.000,     0.000,   3,   1,1.05698,  -6.5851,   1
  1971,'COOMAGEA    ', 110.0000,1,     0.000,     0.000,   7,   1,1.05000,   1.0545,   4
  1981,'CORRACLA    ', 110.0000,1,     0.000,     0.000,   9,   1,1.04523, -11.8510,   1
  1991,'CASTLEDO    ', 110.0000,1,     0.000,     0.000,   6,   1,1.06852,  -5.1458,   1
  2001,'CULLENAG    ', 110.0000,1,     0.000,     0.000,   5,   1,1.06373,  -7.0216,   1
  2002,'CULLENAG    ', 220.0000,1,     0.000,     0.000,   5,   1,1.07249,  -4.1361,   1
  2021,'CITY WES    ', 110.0000,1,     0.000,     0.000,   1,   1,1.04552, -10.1581,   2
  2041,'CORDUFF     ', 110.0000,1,     0.000,     0.000,   2,   1,1.05854,  -7.7799,   1
  2042,'CORDUFF     ', 220.0000,1,     0.000,     0.000,   2,   1,1.07500,  -4.7646,   1
  2051,'BLACKPOO    ', 110.0000,1,     0.000,     0.000,   3,   1,1.05249,  -7.0435,   1
  2052,'CORDUFFB    ', 220.0000,1,     0.000,     0.000,   2,   1,1.07500,  -4.7646,   1
  2081,'DUNKETTL    ', 110.0000,4,     0.000,     0.000,   3,   1,1.00000,   0.0000,   5
  2090,'WEST GAL    ', 110.0000,1,     0.000,     0.000,   9,   1,1.07559,  -3.6750,   1
  2091,'WEST GAL    ', 110.0000,1,     0.000,     0.000,   9,   1,1.06298,  -5.1678,   1
  2101,'DUNDALK     ', 110.0000,1,     0.000,     0.000,  10,   1,1.04744,  -9.7688,   2
  2111,'UGOOL       ', 110.0000,1,     0.000,     0.000,   9,   1,1.07910,  -3.1204,   1
  2121,'DRUMLINE    ', 110.0000,1,     0.000,     0.000,   4,   1,1.04957,  -6.6398,   1
  2131,'DROMADA     ', 110.0000,1,     0.000,     0.000,   3,   1,1.05000,   1.2545,   1
  2141,'DUNGARVA    ', 110.0000,1,     0.000,     0.000,   5,   1,1.05416,  -7.8796,   1
  2161,'DOON        ', 110.0000,1,     0.000,     0.000,   5,   1,1.05574,  -8.8745,   1
  2181,'DRYBRIDG    ', 110.0000,1,     0.000,     0.000,  10,   1,1.04141,  -9.7136,   1
  2202,'DUNSTOWN    ', 220.0000,1,     0.000,     0.000,   2,   1,1.06873,  -4.3090,   1
  2204,'DUNSTOWN    ', 380.0000,1,     0.000,     0.000,   2,   1,1.03568,  -2.4085,   1
  2221,'DUNMANWA    ', 110.0000,1,     0.000,     0.000,   3,   1,1.05334,  -6.1334,   1
  2231,'DERRYBRI    ', 110.0000,1,     0.000,     0.000,   4,   1,1.06303,  -4.2626,   2
  2241,'DALLOW      ', 110.0000,1,     0.000,     0.000,   5,   1,1.06410,  -6.5722,   2
  2251,'DARDISTO    ', 110.0000,1,     0.000,     0.000,   1,   1,1.07254,  -8.6127,   2
  2261,'DERRYIRO    ', 110.0000,1,     0.000,     0.000,   8,   1,1.05152,  -7.9333,   1
  2281,'DALTON      ', 110.0000,1,     0.000,     0.000,   9,   1,1.04664,  -8.0778,   1
  2301,'DUNFIRTH    ', 110.0000,1,     0.000,     0.000,   8,   1,1.05203,  -8.1849,   2
  2321,'DRUMKEEN    ', 110.0000,1,     0.000,     0.000,   9,   1,1.04574, -11.2605,   1
  2361,'ENNIS       ', 110.0000,1,     0.000,     0.000,   4,   1,1.05000,  -5.8435,   1
  2391,'KILL HIL    ', 110.0000,1,     0.000,     0.000,   5,   1,1.06389,  -8.2845,   1
  2401,'MOUNTLUC    ', 110.0000,1,     0.000,     0.000,   8,   1,1.05840,  -6.3539,   1
  2411,'KNOCKMUL    ', 110.0000,1,     0.000,     0.000,   6,   1,1.06152,  -7.0853,   1
  2481,'FASS EAS    ', 110.0000,1,     0.000,     0.000,   2,   1,1.05388,  -7.8342,   2
  2491,'FASS WES    ', 110.0000,1,     0.000,     0.000,   2,   1,1.05411,  -7.8233,   2
  2521,'FLAGFORD    ', 110.0000,1,     0.000,     0.000,   9,   1,1.05207,  -8.1643,   1
  2522,'FLAGFORD    ', 220.0000,1,     0.000,     0.000,   9,   1,1.05609,  -6.4410,   1
  2541,'FRN ST A    ', 110.0000,1,     0.000,     0.000,   1,   1,1.07293,  -6.7308,   2
  2551,'FRN ST B    ', 110.0000,1,     0.000,     0.000,   1,   1,1.06878,  -7.9158,   2
  2561,'FIN_URBA    ', 110.0000,1,     0.000,     0.000,   2,   1,1.05954,  -7.1249,   2
  2562,'FINGLAS     ', 220.0000,1,     0.000,     0.000,   2,   1,1.07500,  -4.9535,   1
  2563,'FINGLAS2    ', 220.0000,1,     0.000,     0.000,   2,   1,1.07500,  -4.9535,   1
  2571,'FIN_RURA    ', 110.0000,1,     0.000,     0.000,   2,   1,1.07290,  -8.4472,   2
  2581,'KILDONAN    ', 110.0000,1,     0.000,     0.000,   2,   1,1.05727,  -7.9407,   2
  2671,'GARVAGH     ', 110.0000,1,     0.000,     0.000,   9,   1,1.05434,  -7.9088,   4
  2681,'GILRA       ', 110.0000,1,     0.000,     0.000,   9,   1,1.05402,  -8.4510,   2
  2701,'GLASMORE    ', 110.0000,1,     0.000,     0.000,   1,   1,1.05648,  -9.5137,   2
  2721,'GRIFFINR    ', 110.0000,1,     0.000,     0.000,   2,   1,1.06069,  -7.6154,   2
  2731,'GLANLEE     ', 110.0000,1,     0.000,     0.000,   7,   1,1.05005,   1.0726,   4
  2741,'GREAT IS    ', 110.0000,1,     0.000,     0.000,   6,   1,1.06577,  -6.7547,   1
  2742,'GREAT IS    ', 220.0000,1,     0.000,     0.000,   6,   1,1.07500,  -3.4931,   1
  2761,'GRANGE      ', 110.0000,1,     0.000,     0.000,   1,   1,1.07189,  -8.6602,   2
  2771,'GARROW      ', 110.0000,1,     0.000,     0.000,   7,   1,1.04945,   0.3764,   7
  2780,'GALWAY      ', 110.0000,1,     0.000,     0.000,   9,   1,1.06581,  -4.7526,   1
  2781,'GALWAY      ', 110.0000,1,     0.000,     0.000,   9,   1,1.06581,  -4.7526,   1
  2801,'GOLAGH      ', 110.0000,1,     0.000,     0.000,   9,   1,1.04802, -10.4281,   4
  2821,'GORTAWEE    ', 110.0000,1,     0.000,     0.000,   9,   1,1.04435, -11.9928,   1
  2841,'GORMAN      ', 110.0000,1,     0.000,     0.000,  10,   1,1.04034,  -9.6630,   1
  2842,'GORMAN      ', 220.0000,1,     0.000,     0.000,  10,   1,1.05116,  -7.1926,   1
  2852,'GLANAGOW    ', 220.0000,1,     0.000,     0.000,   3,   1,1.07821,  -3.2031,   1
  2861,'GRANGE C    ', 110.0000,1,     0.000,     0.000,   1,   1,1.04602,  -9.9891,   2
  2870,'CLOGHER     ', 110.0000,1,     0.000,     0.000,   9,   1,1.04941, -10.4171,   1
  2871,'CLOGHER     ', 110.0000,1,     0.000,     0.000,   9,   1,1.04941, -10.4171,   1
  2881,'GLENLARA    ', 110.0000,1,     0.000,     0.000,   3,   1,1.03570,  -7.6861,   2
  2941,'HAROLDS     ', 110.0000,1,     0.000,     0.000,   1,   1,1.07323,  -6.7343,   2
  2951,'HEUSTON     ', 110.0000,1,     0.000,     0.000,   1,   1,1.06897,  -7.9012,   2
  2962,'HUNTSTOW    ', 220.0000,1,     0.000,     0.000,   2,   1,1.07505,  -4.9118,   4
  2972,'HUNTSTOW    ', 220.0000,1,     0.000,     0.000,   2,   1,1.07597,  -4.5954,   4
  2981,'HARTNETT    ', 110.0000,1,     0.000,     0.000,   3,   1,1.05376,  -5.9505,   2
  3061,'INISCARR    ', 110.0000,1,     0.000,     0.000,   3,   1,1.05276,  -6.6505,   1
  3081,'INCH_CIT    ', 110.0000,1,     0.000,     0.000,   2,   1,1.06931,  -7.8634,   2
  3082,'INCHICOR    ', 220.0000,1,     0.000,     0.000,   2,   1,1.07430,  -5.9749,   1
  3091,'INCH_COU    ', 110.0000,1,     0.000,     0.000,   2,   1,1.05088,  -9.7887,   2
  3101,'IKERRIN     ', 110.0000,1,     0.000,     0.000,   5,   1,1.05456,  -8.1920,   2
  3122,'IRISHTOW    ', 220.0000,1,     0.000,     0.000,   2,   1,1.07500,  -5.2302,   1
  3190,'NORTH KE    ', 110.0000,1,     0.000,     0.000,   7,   1,1.05964,  -3.4134,   1
  3191,'NORTH KE    ', 110.0000,1,     0.000,     0.000,   7,   1,1.05236,   0.5429,   1
  3192,'NORTH KE    ', 220.0000,1,     0.000,     0.000,   7,   1,1.06694,  -0.8526,   1
  3200,'KNOCKRAH    ', 110.0000,1,     0.000,     0.000,   3,   1,1.07099,  -3.9336,   1
  3201,'KNOCKRAH    ', 110.0000,1,     0.000,     0.000,   3,   1,1.06102,  -6.3597,   1
  3202,'KNOCKRAH    ', 220.0000,1,     0.000,     0.000,   3,   1,1.07099,  -3.9336,   1
  3203,'KNOCKRAH    ', 220.0000,1,     0.000,     0.000,   3,   1,1.07099,  -3.9336,   1
  3209,'KNOCKRAH    ', 110.0000,1,     0.000,     0.000,   3,   1,1.06102,  -6.3597,   1
  3211,'KNOCKAVA    ', 110.0000,1,     0.000,     0.000,   4,   1,1.06256,  -4.3274,   1
  3221,'KILBARRY    ', 110.0000,1,     0.000,     0.000,   3,   1,1.05253,  -7.0411,   1
  3241,'KILTEEL     ', 110.0000,1,     0.000,     0.000,   8,   1,1.06194,  -8.8829,   2
  3251,'REAMORE     ', 110.0000,1,     0.000,     0.000,   7,   1,1.06364,  -3.7464,   1
  3261,'KILKENNY    ', 110.0000,1,     0.000,     0.000,   6,   1,1.05679,  -9.5317,   1
  3281,'KILLONAN    ', 110.0000,1,     0.000,     0.000,   7,   1,1.05657,  -6.1524,   1
  3282,'KILLONAN    ', 220.0000,1,     0.000,     0.000,   7,   1,1.05658,  -4.5876,   1
  3301,'KNOCKERA    ', 110.0000,1,     0.000,     0.000,   7,   1,1.04770,  -5.7388,   1
  3321,'KNOCKUMB    ', 110.0000,1,     0.000,     0.000,  10,   1,1.03193, -10.1909,   5
  3330,'BALLYNAH    ', 110.0000,1,     0.000,     0.000,   3,   1,1.05319,   0.4503,   1
  3331,'BALLYNAH    ', 110.0000,1,     0.000,     0.000,   3,   1,1.05319,   0.4503,   1
  3332,'BALLYNAH    ', 220.0000,1,     0.000,     0.000,   3,   1,1.06282,  -0.7754,   1
  3341,'KELLIS      ', 110.0000,1,     0.000,     0.000,   6,   1,1.07503,  -7.5719,   1
  3342,'KELLIS      ', 220.0000,1,     0.000,     0.000,   6,   1,1.06114,  -5.0405,   1
  3361,'KILTOY      ', 110.0000,1,     0.000,     0.000,   9,   1,1.04101, -11.8637,   5
  3381,'KINNEGAD    ', 110.0000,1,     0.000,     0.000,   8,   1,1.04908,  -8.3261,   1
  3391,'KNOCKACU    ', 110.0000,1,     0.000,     0.000,   3,   1,1.05000,   1.5426,   1
  3401,'KILLOTER    ', 110.0000,1,     0.000,     0.000,   5,   1,1.06041,  -7.3318,   1
  3421,'KILMORE     ', 110.0000,1,     0.000,     0.000,   1,   1,1.07208,  -8.6382,   2
  3431,'KILMAHUD    ', 110.0000,1,     0.000,     0.000,   1,   1,1.04575, -10.0064,   1
  3462,'TEMP        ', 220.0000,1,     0.000,     0.000,   7,   1,1.06995,  -1.4528,   1
  3472,'KILPADDO    ', 220.0000,1,     0.000,     0.000,   7,   1,1.06895,  -1.7443,   1
  3501,'LANESBOR    ', 110.0000,1,     0.000,     0.000,   9,   1,1.05000,  -6.4092,   1
  3521,'LOUTHA      ', 110.0000,1,     0.000,     0.000,  10,   1,1.06258,  -9.1469,   1
  3522,'LOUTH       ', 220.0000,1,     0.000,     0.000,  10,   1,1.04536,  -7.2544,   1
  3541,'LIMERICK    ', 110.0000,1,     0.000,     0.000,   7,   1,1.04953,  -6.0915,   1
  3561,'LISDRUM     ', 110.0000,1,     0.000,     0.000,  10,   1,1.06095, -11.2267,   1
  3581,'LETTERKE    ', 110.0000,1,     0.000,     0.000,   9,   1,1.04100, -11.8634,   1
  3601,'LIBERTY     ', 110.0000,1,     0.000,     0.000,   3,   1,1.05253,  -7.1055,   2
  3611,'LIBERTY     ', 110.0000,1,     0.000,     0.000,   3,   1,1.05271,  -7.0949,   2
  3621,'LISHEEN     ', 110.0000,1,     0.000,     0.000,   5,   1,1.05000,  -8.1921,   5
  3641,'LODGEWOO    ', 110.0000,1,     0.000,     0.000,   6,   1,1.06891,  -5.2169,   1
  3642,'LODGEWOO    ', 220.0000,1,     0.000,     0.000,   6,   1,1.07145,  -4.5876,   1
  3651,'CRORY       ', 110.0000,1,     0.000,     0.000,   5,   1,1.06891,  -5.2169,   1
  3751,'MISERY H    ', 110.0000,1,     0.000,     0.000,   1,   1,1.07354,  -6.7178,   2
  3761,'MACETOWN    ', 110.0000,1,     0.000,     0.000,   1,   1,1.05648,  -7.9807,   1
  3781,'MCDERMOT    ', 110.0000,1,     0.000,     0.000,   1,   1,1.05733,  -7.2718,   2
  3801,'MIDLETON    ', 110.0000,1,     0.000,     0.000,   3,   1,1.05906,  -6.4783,   1
  3821,'MEATH HI    ', 110.0000,1,     0.000,     0.000,  10,   1,1.04332,  -9.4513,   2
  3841,'MAYNOOTH    ', 110.0000,1,     0.000,     0.000,   2,   1,1.06210,  -7.5256,   1
  3842,'MAYNOOTH    ', 220.0000,1,     0.000,     0.000,   2,   1,1.06694,  -5.7626,   1
  3851,'MAYNOOTH    ', 110.0000,1,     0.000,     0.000,   2,   1,1.05919,  -7.5082,   1
  3852,'MAYNOOTH    ', 220.0000,1,     0.000,     0.000,   2,   1,1.07138,  -5.1861,   1
  3861,'MILLTOWN    ', 110.0000,1,     0.000,     0.000,   1,   1,1.07496,  -6.6556,   2
  3871,'MILLTOWN    ', 110.0000,1,     0.000,     0.000,   1,   1,1.06680,  -7.9865,   2
  3881,'MACROOM     ', 110.0000,1,     0.000,     0.000,   3,   1,1.05476,  -5.8985,   1
  3901,'MONETEEN    ', 110.0000,1,     0.000,     0.000,   7,   1,1.04713,  -5.3748,   1
  3934,'MNYPG1      ', 380.0000,1,     0.000,     6.000,   4,   1,1.05000,   2.1968,   1
  3941,'MONEYPOI    ', 110.0000,1,     0.000,     0.000,   4,   1,1.06984,  -3.0302,   1
  3942,'MONEYPOI    ', 220.0000,1,     0.000,     0.000,   4,   1,1.07067,  -1.3667,   1
  3944,'MNYPG3      ', 380.0000,1,     0.000,     6.000,   4,   1,1.05000,   2.1968,   1
  3954,'MNYPG2      ', 380.0000,1,     0.000,     6.000,   4,   1,1.05000,   0.7810,   1
  3961,'MARINA      ', 110.0000,1,     0.000,     0.000,   3,   1,1.05287,  -7.0840,   1
  3981,'MUNGRET     ', 110.0000,1,     0.000,     0.000,   7,   1,1.04691,  -5.3878,   5
  3991,'MUNGRET     ', 110.0000,1,     0.000,     0.000,   7,   1,1.04691,  -5.3871,   5
  4001,'MULLINGA    ', 110.0000,1,     0.000,     0.000,   9,   1,1.04705,  -8.6455,   1
  4021,'MALLOW      ', 110.0000,1,     0.000,     0.000,   3,   1,1.04229,  -7.6820,   1
  4041,'MOY         ', 110.0000,1,     0.000,     0.000,   9,   1,1.04449,  -9.1126,   1
  4061,'MULLAGHA    ', 110.0000,1,     0.000,     0.000,  10,   1,1.04845,  -9.7758,   2
  4071,'MEENTYCA    ', 110.0000,1,     0.000,     0.000,   9,   1,1.04733, -11.0242,   4
  4081,'MONREAD     ', 110.0000,1,     0.000,     0.000,   8,   1,1.05859,  -8.9038,   1
  4091,'MULREAVY    ', 110.0000,1,     0.000,     0.000,   9,   1,1.05000, -10.2420,   1
  4101,'NEWBURY     ', 110.0000,1,     0.000,     0.000,   1,   1,1.07196,  -8.6512,   2
  4111,'BANCROFT    ', 110.0000,1,     0.000,     0.000,   1,   1,1.05785,  -7.6622,   2
  4201,'NEWBRIDG    ', 110.0000,1,     0.000,     0.000,   8,   1,1.05563,  -8.4762,   1
  4211,'NORTH QU    ', 110.0000,1,     0.000,     0.000,   1,   1,1.07488,  -6.6528,   2
  4221,'NAVAN       ', 110.0000,1,     0.000,     0.000,  10,   1,1.03698,  -9.9181,   1
  4242,'NORTH WA    ', 220.0000,1,     0.000,     0.000,   2,   1,1.07602,  -4.9733,   1
  4251,'NORE        ', 110.0000,1,     0.000,     0.000,   6,   1,1.05690,  -9.5344,   1
  4261,'NENAGH      ', 110.0000,1,     0.000,     0.000,   7,   1,1.03111,  -7.1451,   2
  4281,'NANGOR      ', 110.0000,1,     0.000,     0.000,   1,   1,1.04583, -10.0012,   2
  4341,'OLDCOURT    ', 110.0000,1,     0.000,     0.000,   3,   1,1.05927,  -6.4158,   5
  4351,'OLDCOURT    ', 110.0000,1,     0.000,     0.000,   3,   1,1.05934,  -6.4113,   5
  4361,'OUGHTRAG    ', 110.0000,1,     0.000,     0.000,   7,   1,1.05072,  -5.0490,   2
  4371,'GLENREE     ', 110.0000,1,     0.000,     0.000,   9,   1,1.05000,  -8.6584,   1
  4382,'OLDSTREE    ', 220.0000,1,     0.000,     0.000,   4,   1,1.06727,   1.6168,   1
  4384,'OLDSTREE    ', 380.0000,1,     0.000,     0.000,   4,   1,1.05125,   1.2841,   1
  4401,'POPPINTR    ', 110.0000,1,     0.000,     0.000,   1,   1,1.07236,  -8.5487,   2
  4441,'POLLAPHU    ', 110.0000,1,     0.000,     0.000,   6,   1,1.06314,  -8.1487,   1
  4461,'POOLBEG     ', 110.0000,1,     0.000,     0.000,   2,   1,1.07511,  -6.6217,   2
  4462,'POOLBEG     ', 220.0000,1,     0.000,     0.000,   2,   1,1.07573,  -4.9737,   1
  4471,'POOLBEG     ', 110.0000,1,     0.000,     0.000,   2,   1,1.07511,  -6.6223,   2
  4472,'POOLBEG     ', 220.0000,1,     0.000,     0.000,   2,   1,1.07603,  -6.0657,   1
  4481,'PORTLAOI    ', 110.0000,1,     0.000,     0.000,   8,   1,1.05267,  -8.3439,   1
  4491,'PELLETST    ', 110.0000,1,     0.000,     0.000,   1,   1,1.05815,  -7.2364,   2
  4501,'PLATIN      ', 110.0000,1,     0.000,     0.000,  10,   1,1.04080,  -9.7001,   1
  4511,'POTTERY     ', 110.0000,1,     0.000,     0.000,   1,   1,1.05839,  -7.6687,   2
  4522,'PROSPECT    ', 220.0000,1,     0.000,     0.000,   7,   1,1.07054,  -1.5476,   1
  4621,'RYEBROOK    ', 110.0000,1,     0.000,     0.000,   2,   1,1.04751,  -8.4360,   1
  4651,'RINGSEND    ', 110.0000,1,     0.000,     0.000,   1,   1,1.07500,  -6.6402,   2
  4681,'RATHKEAL    ', 110.0000,1,     0.000,     0.000,   7,   1,1.05006,  -4.5849,   1
  4701,'RICHMOND    ', 110.0000,1,     0.000,     0.000,   9,   1,1.04506,  -6.6657,   2
  4711,'RICHMOND    ', 110.0000,1,     0.000,     0.000,   9,   1,1.04506,  -6.6657,   1
  4721,'RAFFEEN     ', 110.0000,1,     0.000,     0.000,   3,   1,1.06098,  -6.2582,   1
  4722,'RAFFEEN     ', 220.0000,1,     0.000,     0.000,   3,   1,1.07567,  -3.7535,   1
  4731,'RAFFEENB    ', 110.0000,1,     0.000,     0.000,   3,   1,1.06046,  -6.3312,   1
  4741,'RINAWADE    ', 110.0000,1,     0.000,     0.000,   2,   1,1.05571,  -7.7842,   1
  4761,'RINGASKI    ', 110.0000,1,     0.000,     0.000,   3,   1,1.06038,  -6.3387,   2
  4781,'RATRUSSA    ', 110.0000,1,     0.000,     0.000,  10,   1,1.05000,  -9.6203,   1
  4901,'SHELTON     ', 110.0000,1,     0.000,     0.000,   6,   1,1.06972,  -6.1086,   5
  4911,'SUIR        ', 110.0000,1,     0.000,     0.000,   5,   1,1.06544,  -8.6530,   4
  4941,'SHANNONB    ', 110.0000,1,     0.000,     0.000,   5,   1,1.07500,  -5.7551,   1
  4942,'SHANNONB    ', 220.0000,1,     0.000,     0.000,   5,   1,1.07094,  -5.2793,   1
  4943,'SHANNONB    ', 220.0000,1,     0.000,     0.000,   5,   1,1.07094,  -5.2793,   1
  4951,'SALTHILL    ', 110.0000,1,     0.000,     0.000,   9,   1,1.06453,  -4.8820,   2
  4961,'SHANKILL    ', 110.0000,1,     0.000,     0.000,  10,   1,1.04759, -10.8588,   1
  4981,'SLIGO       ', 110.0000,1,     0.000,     0.000,   9,   1,1.05219,  -9.0159,   1
  4991,'SORNE HI    ', 110.0000,1,     0.000,     0.000,   9,   1,1.02287, -10.8923,   2
  5001,'SOMERSET    ', 110.0000,1,     0.000,     0.000,   9,   1,1.06802,  -5.7380,   2
  5022,'SHELLYBA    ', 220.0000,1,     0.000,     0.000,   2,   1,1.07575,  -4.9691,   1
  5031,'STEPHENS    ', 110.0000,1,     0.000,     0.000,   1,   1,1.06097,  -9.3563,   2
  5041,'SRANANAG    ', 110.0000,1,     0.000,     0.000,   9,   1,1.05424,  -8.7329,   1
  5042,'SRANANAG    ', 220.0000,1,     0.000,     0.000,   9,   1,1.05491,  -7.4247,   1
  5051,'SEAL ROC    ', 110.0000,1,     0.000,     0.000,   7,   1,1.05034,  -1.7082,   4
  5061,'STRATFOR    ', 110.0000,1,     0.000,     0.000,   6,   1,1.06191,  -8.1861,   2
  5071,'SEAL ROC    ', 110.0000,1,     0.000,     0.000,   7,   1,1.05034,  -1.7082,   4
  5091,'SINGLAND    ', 110.0000,1,     0.000,     0.000,   7,   1,1.05513,  -6.2916,   1
  5122,'SHELLYBA    ', 220.0000,1,     0.000,     0.000,   2,   1,1.07467,  -5.2046,   1
  5131,'TANEY       ', 110.0000,1,     0.000,     0.000,   1,   1,1.05832,  -7.6906,   2
  5141,'TARBERT     ', 110.0000,1,     0.000,     0.000,   7,   1,1.06531,  -2.6715,   1
  5142,'TARBERT     ', 220.0000,1,     0.000,     0.000,   7,   1,1.06943,  -1.6326,   1
  5172,'TYNAGH      ', 220.0000,1,     0.000,     0.000,   4,   1,1.07500,   1.7205,   1
  5181,'TRABEG      ', 110.0000,1,     0.000,     0.000,   3,   1,1.05319,  -7.0603,   1
  5191,'TIEVEBRA    ', 110.0000,1,     0.000,     0.000,   9,   1,1.03513, -11.6718,   1
  5202,'TURLOUGH    ', 220.0000,1,     0.000,     0.000,   2,   1,1.06702,  -3.7299,   1
  5221,'TULLABRA    ', 110.0000,1,     0.000,     0.000,   4,   1,1.06695,  -3.3376,   2
  5222,'SHELLYBA    ', 220.0000,1,     0.000,     0.000,   2,   1,1.07467,  -5.2046,   1
  5231,'TRINITY     ', 110.0000,1,     0.000,     0.000,   1,   1,1.07315,  -6.7334,   2
  5241,'TAWNAGHM    ', 110.0000,1,     0.000,     0.000,   9,   1,1.04453,  -9.1137,   2
  5251,'TAWN_B      ', 110.0000,1,     0.000,     0.000,   9,   1,1.04453,  -9.1136,   2
  5261,'TRIEN       ', 110.0000,1,     0.000,     0.000,   7,   1,1.05962,  -3.4132,   1
  5271,'CAUTEEN     ', 110.0000,1,     0.000,     0.000,   5,   1,1.05852,  -7.0279,   1
  5281,'TRALEE      ', 110.0000,1,     0.000,     0.000,   7,   1,1.06322,  -3.9222,   1
  5301,'THURLES     ', 110.0000,1,     0.000,     0.000,   5,   1,1.05885,  -8.5286,   1
  5321,'THORNSBE    ', 110.0000,1,     0.000,     0.000,   8,   1,1.04961,  -7.5218,   2
  5341,'TONROE      ', 110.0000,1,     0.000,     0.000,   9,   1,1.03889,  -8.4741,   2
  5361,'TRILLICK    ', 110.0000,1,     0.000,     0.000,   9,   1,1.02304, -11.0731,   2
  5381,'TIPPERAR    ', 110.0000,1,     0.000,     0.000,   5,   1,1.05881,  -7.9016,   1
  5441,'WATERFOR    ', 110.0000,1,     0.000,     0.000,   5,   1,1.06129,  -7.2587,   1
  5462,'WOODLAND    ', 220.0000,1,     0.000,     0.000,   2,   1,1.07596,  -3.8639,   1
  5464,'WOODLAND    ', 380.0000,1,     0.000,     0.000,   2,   1,1.01920,  -0.0405,   1
  5481,'WHITEGAT    ', 110.0000,1,     0.000,     0.000,   3,   1,1.06284,  -6.1499,   1
  5501,'WEXFORD     ', 110.0000,1,     0.000,     0.000,   6,   1,1.06317,  -6.9792,   1
  5521,'WOLFE TO    ', 110.0000,1,     0.000,     0.000,   1,   1,1.05706,  -7.2894,   2
 10204,'ARDNACRU    ',  38.0000,1,     0.000,     0.000,   4,   1,1.05106,  -8.3115,   2
 10205,'ARDNACRU    ',  38.0000,1,     0.000,     0.000,   4,   1,1.05126,  -8.6562,   2
 10210,'ARDNACRU    ', 110.0000,1,     0.000,     0.000,   4,   1,1.05386,  -6.3964,   1
 10212,'KNOCKAST    ',  20.0000,1,     0.000,     0.000,   4,   1,1.01342,  -7.8043,   1
 10213,'MIENVEE     ',  20.0000,1,     0.000,     0.000,   4,   1,1.01320,  -9.0462,   1
 10261,'ARDNA_CA    ', 110.0000,1,     0.000,     0.000,   4,   1,1.05386,  -6.3964,   1
 10271,'ARDNG1      ',  10.5000,2,     0.000,     0.000,   4,   1,1.00368,  -6.3964,   3
 10272,'ARDNG2      ',  10.5000,2,     0.000,     0.000,   4,   1,1.00368,  -6.3964,   3
 10273,'ARDNG3      ',  10.5000,2,     0.000,     0.000,   4,   1,1.00368,  -6.3964,   3
 10274,'ARDNG4      ',  10.5000,2,     0.000,     0.000,   4,   1,1.00368,  -6.3964,   3
 10275,'KNOCKAST    ',   0.6900,2,     0.000,     0.000,   4,   1,1.01384,  -7.9398,   1
 10276,'MIENVEE     ',   0.6900,2,     0.000,     0.000,   4,   1,1.01358,  -9.4288,   1
 10401,'AGHADA      ',  10.0000,1,     0.000,     0.000,   3,   1,1.02313,  -5.9939,   3
 10421,'AGHADA      ',  10.5000,1,     0.000,     0.000,   3,   1,1.06637,  -5.7868,   1
 10470,'AGH_CCGT    ',  21.0000,2,     0.000,     0.000,   3,   1,1.01177,  -4.9023,   1