0,   100.00          / PSS/E-30.3    MON, NOV 18 2013  18:11
AITYTFS Summer Night Valley 2022

    10,'F_M         ',  38.0000,1,     0.000,     0.000,   2,   1,1.03675, -11.2705,   2
    11,'FMN LOOP    ',  38.0000,1,     0.000,     0.000,   2,   1,1.03528, -10.4999,   2
    12,'BEDFORD     ',  38.0000,1,     0.000,     0.000,   1,   1,1.02749, -12.2559,   2
    13,'M_R         ',  38.0000,1,     0.000,     0.000,   1,   1,1.04317, -12.1185,   2
    14,'F_I         ',  38.0000,1,     0.000,     0.000,   2,   1,1.05072, -11.5441,   2
    15,'I_M         ',  38.0000,1,     0.000,     0.000,   2,   1,1.02678, -11.1949,   2
  1021,'ARDNACRU    ', 110.0000,1,     0.000,     0.000,   4,   1,1.00082,  -5.5889,   1
  1041,'AGHADA      ', 110.0000,1,     0.000,     0.000,   3,   1,1.00090,  -4.9962,   1
  1042,'AGHADA      ', 220.0000,1,     0.000,     0.000,   3,   1,1.00000,  -4.1771,   1
  1052,'AGHADA_B    ', 220.0000,1,     0.000,     0.000,   3,   1,0.99358,  -3.6776,   1
  1061,'ARIGNA      ', 110.0000,1,     0.000,     0.000,   9,   1,1.01143,  -2.9098,   2
  1062,'AGH_AT14    ', 220.0000,1,     0.000,     0.000,   3,   1,1.00000,  -4.1771,   1
  1071,'AGANNYGA    ', 110.0000,1,     0.000,     0.000,   4,   1,1.00270,  -3.4824,   1
  1072,'AGHT2102    ', 220.0000,1,     0.000,     0.000,   3,   1,1.00000,  -4.1812,   1
  1081,'AHANE       ', 110.0000,1,     0.000,     0.000,   7,   1,1.00273,  -5.5045,   2
  1091,'ADAMSTOW    ', 110.0000,1,     0.000,     0.000,   1,   1,0.99748, -11.2966,   2
  1101,'ANNER       ', 110.0000,1,     0.000,     0.000,   5,   1,0.99941,  -6.4815,   5
  1121,'ARKLOW      ', 110.0000,1,     0.000,     0.000,   6,   1,1.01256,  -7.6410,   1
  1122,'ARKLOW      ', 220.0000,1,     0.000,     0.000,   6,   1,1.00860,  -7.5279,   1
  1131,'ATHEA       ', 110.0000,1,     0.000,     0.000,   7,   1,0.99986,  -1.2459,   4
  1141,'ATHLONE     ', 110.0000,1,     0.000,     0.000,   9,   1,0.99631,  -4.6010,   1
  1151,'ATHEA-2     ', 110.0000,1,     0.000,     0.000,   7,   1,0.99986,  -1.2459,   1
  1161,'AUGHINIS    ', 110.0000,1,     0.000,     0.000,   7,   1,1.00000,  -4.3631,   1
  1181,'ARVA        ', 110.0000,1,     0.000,     0.000,  10,   1,1.00332,  -5.4737,   1
  1201,'ARTANE      ', 110.0000,1,     0.000,     0.000,   1,   1,1.01712,  -9.5077,   2
  1211,'BALLYVOU    ', 110.0000,1,     0.000,     0.000,   3,   1,1.06335,  -1.3118,   1
  1212,'BALLYVOU    ', 220.0000,1,     0.000,     0.000,   3,   1,1.00428,  -2.1643,   1
  1221,'ATHY        ', 110.0000,1,     0.000,     0.000,   8,   1,1.02361,  -7.7955,   1
  1231,'BALLYWAT    ', 110.0000,1,     0.000,     0.000,   6,   1,1.01402,  -6.5067,   4
  1251,'BOOLTIAG    ', 110.0000,1,     0.000,     0.000,   4,   1,1.00983,  -4.7653,   2
  1271,'BALTRASN    ', 110.0000,1,     0.000,     0.000,  10,   1,1.00653,  -8.9019,   1
  1281,'BALLYLIC    ', 110.0000,1,     0.000,     0.000,   3,   1,1.00056,  -3.8050,   2
  1301,'BALLYBEG    ', 110.0000,1,     0.000,     0.000,   6,   1,1.00867,  -8.0977,   1
  1311,'CORDAL      ', 110.0000,1,     0.000,     0.000,   3,   1,1.00174,  -0.1626,   1
  1321,'BLAKE       ', 110.0000,1,     0.000,     0.000,   8,   1,1.00267,  -8.3684,   2
  1341,'BINBANE     ', 110.0000,1,     0.000,     0.000,   9,   1,0.99835,  -0.6327,   2
  1351,'BARODA      ', 110.0000,1,     0.000,     0.000,   8,   1,1.00000,  -8.2994,   1
  1361,'BALLYDIN    ', 110.0000,1,     0.000,     0.000,   5,   1,1.00294,  -6.7379,   1
  1381,'BARNAHEL    ', 110.0000,1,     0.000,     0.000,   3,   1,0.99875,  -5.1414,   1
  1391,'BARNAHEL    ', 110.0000,1,     0.000,     0.000,   3,   1,0.99720,  -5.2365,   1
  1400,'BELLACOR    ', 110.0000,1,     0.000,     0.000,   9,   1,1.00395,  -2.3776,   1
  1401,'BELLACOR    ', 110.0000,1,     0.000,     0.000,   9,   1,1.01436,  -3.0808,   1
  1404,'BELLACOR    ', 380.0000,1,     0.000,     0.000,   9,   1,1.06347,  -2.4301,   1
  1421,'BLACKROC    ', 110.0000,1,     0.000,     0.000,   1,   1,1.00449,  -9.4076,   2
  1431,'BALLYRAG    ', 110.0000,1,     0.000,     0.000,   6,   1,1.01856,  -8.0234,   1
  1441,'BANDON      ', 110.0000,1,     0.000,     0.000,   3,   1,0.99944,  -5.3739,   1
  1451,'CLOGHRAN    ', 110.0000,1,     0.000,     0.000,   1,   1,1.00364,  -9.4488,   1
  1461,'BARRYMOR    ', 110.0000,1,     0.000,     0.000,   5,   1,1.00029,  -5.2440,   2
  1471,'BELCAMP     ', 110.0000,1,     0.000,     0.000,   1,   1,1.01447,  -9.8037,   2
  1472,'BELCAMP     ', 220.0000,1,     0.000,     0.000,   1,   1,1.01493,  -8.5461,   2
  1481,'BUTLERST    ', 110.0000,1,     0.000,     0.000,   5,   1,1.00925,  -7.4415,   1
  1492,'BALLAKEL    ', 220.0000,1,     0.000,     0.000,  10,   1,1.01711,  -6.2351,   1
  1501,'BRINNY      ', 110.0000,1,     0.000,     0.000,   3,   1,0.99927,  -5.3838,   5
  1511,'KNOCKNAG    ', 110.0000,1,     0.000,     0.000,   7,   1,1.00000,  -0.9246,   1
  1541,'BANOGE      ', 110.0000,1,     0.000,     0.000,   6,   1,1.01199,  -7.2522,   1
  1551,'BOGGERAG    ', 110.0000,1,     0.000,     0.000,   3,   1,1.00000,   0.0716,   1
  1571,'ARDNAGAP    ', 110.0000,1,     0.000,     0.000,   9,   1,0.99460,  -0.2108,   2
  1581,'CABRA       ', 110.0000,1,     0.000,     0.000,   1,   1,1.01700,  -9.5230,   2
  1601,'CLASHAVO    ', 110.0000,1,     0.000,     0.000,   3,   1,1.00127,  -4.5789,   1
  1602,'CLASHAVO    ', 220.0000,1,     0.000,     0.000,   3,   1,1.00361,  -2.7605,   1
  1611,'CLONKEEN    ', 110.0000,1,     0.000,     0.000,   7,   1,1.00237,  -4.9023,   1
  1621,'COOLROE     ', 110.0000,1,     0.000,     0.000,   3,   1,0.99860,  -5.2782,   1
  1631,'CORDERRY    ', 110.0000,1,     0.000,     0.000,   9,   1,1.01343,  -2.2471,   1
  1641,'CASHLA      ', 110.0000,1,     0.000,     0.000,   9,   1,1.01943,  -4.4835,   1
  1642,'CASHLA      ', 220.0000,1,     0.000,     0.000,   9,   1,1.02687,  -4.6072,   1
  1651,'CLAHANE     ', 110.0000,1,     0.000,     0.000,   7,   1,1.00696,  -4.6929,   1
  1661,'CASTLEBA    ', 110.0000,1,     0.000,     0.000,   9,   1,1.03000,  -3.9858,   1
  1681,'CARRIGAD    ', 110.0000,1,     0.000,     0.000,   3,   1,0.99991,  -4.8016,   1
  1691,'CENTRAL     ', 110.0000,1,     0.000,     0.000,   1,   1,1.00461,  -9.3573,   1
  1701,'CATH_FAL    ', 110.0000,1,     0.000,     0.000,   9,   1,1.00238,  -0.8284,   1
  1711,'CROMCAST    ', 110.0000,1,     0.000,     0.000,   1,   1,1.01397,  -9.8468,   1
  1721,'CAHIR       ', 110.0000,1,     0.000,     0.000,   5,   1,1.00060,  -5.6241,   1
  1731,'CROMCAST    ', 110.0000,1,     0.000,     0.000,   1,   1,1.01397,  -9.8468,   1
  1741,'CARRICKM    ', 110.0000,1,     0.000,     0.000,   2,   1,1.00437,  -9.3358,   1
  1742,'CARRICKM    ', 220.0000,1,     0.000,     0.000,   2,   1,1.00396,  -8.0039,   1
  1761,'CLIFF       ', 110.0000,1,     0.000,     0.000,   9,   1,1.00239,  -0.8287,   1
  1781,'CASTLEFA    ', 110.0000,1,     0.000,     0.000,   7,   1,0.99962,  -4.3838,   5
  1791,'BRACKLON    ', 110.0000,1,     0.000,     0.000,   8,   1,1.00380,  -7.7338,   1
  1801,'COOKSTOW    ', 110.0000,1,     0.000,     0.000,   1,   1,1.00377,  -8.6458,   2
  1821,'CLOON       ', 110.0000,1,     0.000,     0.000,   9,   1,1.01640,  -4.3526,   1
  1831,'SCREEB      ', 110.0000,1,     0.000,     0.000,   9,   1,1.01718,  -4.7087,   2
  1841,'CRANE       ', 110.0000,1,     0.000,     0.000,   6,   1,1.01289,  -6.7220,   1
  1851,'CHERRYWO    ', 110.0000,1,     0.000,     0.000,   2,   1,1.00265,  -9.4399,   1
  1861,'CARICKON    ', 110.0000,1,     0.000,     0.000,   9,   1,1.01322,  -3.9508,   1
  1871,'COLLEGE     ', 110.0000,1,     0.000,     0.000,   2,   1,1.00546,  -9.2897,   1
  1881,'CHARLEVI    ', 110.0000,1,     0.000,     0.000,   3,   1,0.99731,  -5.7952,   1
  1891,'CAULSTOW    ', 110.0000,1,     0.000,     0.000,  10,   1,1.00593,  -8.5602,   1
  1901,'CARLOW      ', 110.0000,1,     0.000,     0.000,   6,   1,1.02947,  -7.9905,   1
  1911,'CUILLEEN    ', 110.0000,1,     0.000,     0.000,   9,   1,0.99635,  -4.6021,   1
  1921,'COW CROS    ', 110.0000,1,     0.000,     0.000,   3,   1,0.99927,  -5.1895,   1
  1931,'CUNGHILL    ', 110.0000,1,     0.000,     0.000,   9,   1,1.01011,  -1.9796,   4
  1941,'CUSHALIN    ', 110.0000,1,     0.000,     0.000,   8,   1,1.00000,  -5.6213,   1
  1951,'CARROWBE    ', 110.0000,1,     0.000,     0.000,   9,   1,1.02840,  -4.3674,   1
  1961,'CASTLEVI    ', 110.0000,1,     0.000,     0.000,   3,   1,0.99963,  -5.3144,   1
  1971,'COOMAGEA    ', 110.0000,1,     0.000,     0.000,   7,   1,1.05463,   0.1645,   4
  1981,'CORRACLA    ', 110.0000,1,     0.000,     0.000,   9,   1,0.99628,  -4.0764,   1
  1991,'CASTLEDO    ', 110.0000,1,     0.000,     0.000,   6,   1,1.01167,  -6.4367,   1
  2001,'CULLENAG    ', 110.0000,1,     0.000,     0.000,   5,   1,1.00927,  -7.1894,   1
  2002,'CULLENAG    ', 220.0000,1,     0.000,     0.000,   5,   1,1.01206,  -6.6916,   1
  2011,'KNOCKNAG    ', 110.0000,1,     0.000,     0.000,   3,   1,0.99991,  -4.8016,   1
  2021,'CITY WES    ', 110.0000,1,     0.000,     0.000,   1,   1,0.99513, -11.6011,   2
  2041,'CORDUFF     ', 110.0000,1,     0.000,     0.000,   2,   1,1.00575,  -9.2334,   1
  2042,'CORDUFF     ', 220.0000,1,     0.000,     0.000,   2,   1,1.01298,  -8.3956,   1
  2051,'BLACKPOO    ', 110.0000,1,     0.000,     0.000,   3,   1,0.99833,  -5.4761,   1
  2052,'CORDUFFB    ', 220.0000,1,     0.000,     0.000,   2,   1,1.01298,  -8.3956,   1
  2081,'DUNKETTL    ', 110.0000,4,     0.000,     0.000,   3,   1,1.00000,   0.0000,   5
  2090,'WEST GAL    ', 110.0000,1,     0.000,     0.000,   9,   1,1.00698,  -2.9055,   1
  2091,'WEST GAL    ', 110.0000,1,     0.000,     0.000,   9,   1,1.01905,  -4.5292,   1
  2101,'DUNDALK     ', 110.0000,1,     0.000,     0.000,  10,   1,1.02158,  -7.2064,   2
  2111,'UGOOL       ', 110.0000,1,     0.000,     0.000,   9,   1,1.00022,  -2.1519,   1
  2121,'DRUMLINE    ', 110.0000,1,     0.000,     0.000,   4,   1,1.00031,  -5.4815,   1
  2131,'DROMADA     ', 110.0000,1,     0.000,     0.000,   3,   1,1.00000,  -1.1481,   1
  2141,'DUNGARVA    ', 110.0000,1,     0.000,     0.000,   5,   1,1.00538,  -6.8999,   1
  2161,'DOON        ', 110.0000,1,     0.000,     0.000,   5,   1,1.00017,  -6.4486,   1
  2181,'DRYBRIDG    ', 110.0000,1,     0.000,     0.000,  10,   1,1.00850,  -8.3794,   1
  2202,'DUNSTOWN    ', 220.0000,1,     0.000,     0.000,   2,   1,1.01384,  -8.3607,   1
  2204,'DUNSTOWN    ', 380.0000,1,     0.000,     0.000,   2,   1,1.02789,  -6.6842,   1
  2221,'DUNMANWA    ', 110.0000,1,     0.000,     0.000,   3,   1,0.99817,  -4.5335,   1
  2231,'DERRYBRI    ', 110.0000,1,     0.000,     0.000,   4,   1,1.00325,  -3.0305,   2
  2241,'DALLOW      ', 110.0000,1,     0.000,     0.000,   5,   1,1.00091,  -4.9407,   2
  2251,'DARDISTO    ', 110.0000,1,     0.000,     0.000,   1,   1,1.01392,  -9.8425,   2
  2261,'DERRYIRO    ', 110.0000,1,     0.000,     0.000,   8,   1,0.99924,  -7.7014,   1
  2281,'DALTON      ', 110.0000,1,     0.000,     0.000,   9,   1,1.02787,  -3.9476,   1
  2301,'DUNFIRTH    ', 110.0000,1,     0.000,     0.000,   8,   1,1.00245,  -8.5926,   2
  2321,'DRUMKEEN    ', 110.0000,1,     0.000,     0.000,   9,   1,1.00791,   1.3377,   1
  2361,'ENNIS       ', 110.0000,1,     0.000,     0.000,   4,   1,1.00324,  -5.0336,   1
  2391,'KILL HIL    ', 110.0000,1,     0.000,     0.000,   5,   1,1.00167,  -4.6367,   1
  2401,'MOUNTLUC    ', 110.0000,1,     0.000,     0.000,   8,   1,1.00000,  -5.7384,   1
  2411,'KNOCKMUL    ', 110.0000,1,     0.000,     0.000,   6,   1,1.01054,  -7.5202,   1
  2481,'FASS EAS    ', 110.0000,1,     0.000,     0.000,   2,   1,1.00185,  -8.6914,   2
  2491,'FASS WES    ', 110.0000,1,     0.000,     0.000,   2,   1,1.00192,  -8.6864,   2
  2521,'FLAGFORD    ', 110.0000,1,     0.000,     0.000,   9,   1,1.01380,  -3.9524,   1
  2522,'FLAGFORD    ', 220.0000,1,     0.000,     0.000,   9,   1,1.03661,  -3.8253,   1
  2524,'FLAGFORD    ', 380.0000,1,     0.000,     0.000,   9,   1,1.05380,  -3.1095,   1
  2541,'FRN ST A    ', 110.0000,1,     0.000,     0.000,   1,   1,1.01923, -10.3634,   2
  2551,'FRN ST B    ', 110.0000,1,     0.000,     0.000,   1,   1,1.01062, -10.0097,   2
  2561,'FIN_URBA    ', 110.0000,1,     0.000,     0.000,   2,   1,1.01722,  -9.4426,   2
  2562,'FINGLAS     ', 220.0000,1,     0.000,     0.000,   2,   1,1.01360,  -8.4077,   1
  2563,'FINGLAS2    ', 220.0000,1,     0.000,     0.000,   2,   1,1.01360,  -8.4077,   1
  2571,'FIN_RURA    ', 110.0000,1,     0.000,     0.000,   2,   1,1.01347,  -9.7469,   2
  2581,'KILDONAN    ', 110.0000,1,     0.000,     0.000,   2,   1,1.00484,  -9.3643,   2
  2671,'GARVAGH     ', 110.0000,1,     0.000,     0.000,   9,   1,1.01265,  -1.9920,   4
  2681,'GILRA       ', 110.0000,1,     0.000,     0.000,   9,   1,1.01089,  -4.1345,   2
  2701,'GLASMORE    ', 110.0000,1,     0.000,     0.000,   1,   1,1.01073, -10.2611,   2
  2721,'GRIFFINR    ', 110.0000,1,     0.000,     0.000,   2,   1,1.00350,  -8.8739,   2
  2731,'GLANLEE     ', 110.0000,1,     0.000,     0.000,   7,   1,1.05428,   0.1869,   4
  2741,'GREAT IS    ', 110.0000,1,     0.000,     0.000,   6,   1,1.01189,  -7.4008,   1
  2742,'GREAT IS    ', 220.0000,1,     0.000,     0.000,   6,   1,1.01438,  -7.0301,   1
  2744,'GREAT IS    ', 380.0000,1,     0.000,     0.000,   6,   1,1.02855,  -5.9816,   1
  2761,'GRANGE      ', 110.0000,1,     0.000,     0.000,   1,   1,1.01402,  -9.8577,   2
  2771,'GARROW      ', 110.0000,1,     0.000,     0.000,   7,   1,1.05862,  -0.5869,   7
  2780,'GALWAY      ', 110.0000,1,     0.000,     0.000,   9,   1,1.01789,  -4.3456,   1
  2781,'GALWAY      ', 110.0000,1,     0.000,     0.000,   9,   1,1.01789,  -4.3456,   1
  2801,'GOLAGH      ', 110.0000,1,     0.000,     0.000,   9,   1,1.00056,   0.5534,   4
  2821,'GORTAWEE    ', 110.0000,1,     0.000,     0.000,   9,   1,0.99485,  -4.7163,   1
  2841,'GORMAN      ', 110.0000,1,     0.000,     0.000,  10,   1,1.00867,  -8.0559,   1
  2842,'GORMAN      ', 220.0000,1,     0.000,     0.000,  10,   1,1.01348,  -7.4432,   1
  2852,'GLANAGOW    ', 220.0000,1,     0.000,     0.000,   3,   1,0.99283,  -3.6278,   1
  2861,'GRANGE C    ', 110.0000,1,     0.000,     0.000,   1,   1,0.99762, -11.2851,   2
  2870,'CLOGHER     ', 110.0000,1,     0.000,     0.000,   9,   1,1.00110,   0.4130,   1
  2871,'CLOGHER     ', 110.0000,1,     0.000,     0.000,   9,   1,1.00110,   0.4130,   1
  2881,'GLENLARA    ', 110.0000,1,     0.000,     0.000,   3,   1,0.99738,  -5.5997,   2
  2941,'HAROLDS     ', 110.0000,1,     0.000,     0.000,   1,   1,1.01940, -10.3524,   2
  2951,'HEUSTON     ', 110.0000,1,     0.000,     0.000,   1,   1,1.01070, -10.0003,   2
  2962,'HUNTSTOW    ', 220.0000,1,     0.000,     0.000,   2,   1,1.01313,  -8.3559,   4
  2972,'HUNTSTOW    ', 220.0000,1,     0.000,     0.000,   2,   1,1.01310,  -8.3963,   4
  2981,'HARTNETT    ', 110.0000,1,     0.000,     0.000,   3,   1,0.99968,  -4.7695,   2
  3061,'INISCARR    ', 110.0000,1,     0.000,     0.000,   3,   1,0.99881,  -5.2094,   1
  3081,'INCH_CIT    ', 110.0000,1,     0.000,     0.000,   2,   1,1.01073,  -9.9774,   2
  3082,'INCHICOR    ', 220.0000,1,     0.000,     0.000,   2,   1,1.01011,  -8.7825,   1
  3091,'INCH_COU    ', 110.0000,1,     0.000,     0.000,   2,   1,1.00030, -11.1405,   2
  3101,'IKERRIN     ', 110.0000,1,     0.000,     0.000,   5,   1,0.99938,  -4.2864,   2
  3122,'IRISHTOW    ', 220.0000,1,     0.000,     0.000,   2,   1,1.00508,  -8.0144,   1
  3190,'NORTH KE    ', 110.0000,1,     0.000,     0.000,   7,   1,1.00613,  -4.9746,   1
  3191,'NORTH KE    ', 110.0000,1,     0.000,     0.000,   7,   1,1.00282,  -1.9367,   1
  3192,'NORTH KE    ', 220.0000,1,     0.000,     0.000,   7,   1,1.01943,  -3.5676,   1
  3194,'NORTH KE    ', 380.0000,1,     0.000,     0.000,   7,   1,1.02468,  -4.1026,   1
  3200,'KNOCKRAH    ', 110.0000,1,     0.000,     0.000,   3,   1,1.00316,  -4.3969,   1
  3201,'KNOCKRAH    ', 110.0000,1,     0.000,     0.000,   3,   1,1.00106,  -5.2453,   1
  3202,'KNOCKRAH    ', 220.0000,1,     0.000,     0.000,   3,   1,1.00316,  -4.3969,   1
  3203,'KNOCKRAH    ', 220.0000,1,     0.000,     0.000,   3,   1,1.00316,  -4.3969,   1
  3204,'KNOCKRAH    ', 380.0000,1,     0.000,     0.000,   3,   1,1.02055,  -5.2271,   1
  3209,'KNOCKRAH    ', 110.0000,1,     0.000,     0.000,   3,   1,1.00106,  -5.2453,   1
  3211,'KNOCKAVA    ', 110.0000,1,     0.000,     0.000,   4,   1,1.00276,  -3.1036,   1
  3221,'KILBARRY    ', 110.0000,1,     0.000,     0.000,   3,   1,0.99835,  -5.4752,   1
  3241,'KILTEEL     ', 110.0000,1,     0.000,     0.000,   8,   1,0.99942,  -8.7663,   2
  3251,'REAMORE     ', 110.0000,1,     0.000,     0.000,   7,   1,1.00673,  -4.5676,   1
  3261,'KILKENNY    ', 110.0000,1,     0.000,     0.000,   6,   1,1.02016,  -8.1835,   1
  3281,'KILLONAN    ', 110.0000,1,     0.000,     0.000,   7,   1,1.00276,  -5.4986,   1
  3282,'KILLONAN    ', 220.0000,1,     0.000,     0.000,   7,   1,1.01036,  -5.0852,   1
  3301,'KNOCKERA    ', 110.0000,1,     0.000,     0.000,   7,   1,1.00256,  -5.1160,   1
  3321,'KNOCKUMB    ', 110.0000,1,     0.000,     0.000,  10,   1,1.00322,  -8.3146,   5
  3330,'BALLYNAH    ', 110.0000,1,     0.000,     0.000,   3,   1,1.00059,  -0.6596,   1
  3331,'BALLYNAH    ', 110.0000,1,     0.000,     0.000,   3,   1,1.00059,  -0.6596,   1
  3332,'BALLYNAH    ', 220.0000,1,     0.000,     0.000,   3,   1,1.00787,  -2.1292,   1
  3341,'KELLIS      ', 110.0000,1,     0.000,     0.000,   6,   1,1.03082,  -8.0204,   1
  3342,'KELLIS      ', 220.0000,1,     0.000,     0.000,   6,   1,1.01039,  -7.8182,   1
  3361,'KILTOY      ', 110.0000,1,     0.000,     0.000,   9,   1,1.00815,   1.1669,   5
  3381,'KINNEGAD    ', 110.0000,1,     0.000,     0.000,   8,   1,0.99923,  -7.8624,   1
  3391,'KNOCKACU    ', 110.0000,1,     0.000,     0.000,   3,   1,1.00000,   0.5044,   1
  3401,'KILLOTER    ', 110.0000,1,     0.000,     0.000,   5,   1,1.00954,  -7.4499,   1
  3421,'KILMORE     ', 110.0000,1,     0.000,     0.000,   1,   1,1.01396,  -9.8464,   2
  3431,'KILMAHUD    ', 110.0000,1,     0.000,     0.000,   1,   1,0.99733, -11.3041,   1
  3461,'KILPADDO    ', 110.0000,1,     0.000,     0.000,   7,   1,1.00828,  -5.1587,   1
  3462,'KILPADDO    ', 220.0000,1,     0.000,     0.000,   7,   1,1.02374,  -4.4014,   1
  3472,'KILPADDO    ', 220.0000,1,     0.000,     0.000,   7,   1,1.02374,  -4.4014,   1
  3501,'LANESBOR    ', 110.0000,1,     0.000,     0.000,   9,   1,1.00000,  -3.5103,   1
  3521,'LOUTHA      ', 110.0000,1,     0.000,     0.000,  10,   1,1.02631,  -6.9918,   1
  3522,'LOUTH       ', 220.0000,1,     0.000,     0.000,  10,   1,1.01710,  -6.2350,   1
  3541,'LIMERICK    ', 110.0000,1,     0.000,     0.000,   7,   1,0.99988,  -5.6208,   1
  3550,'LAOIS_ST    ', 110.0000,1,     0.000,     0.000,   8,   1,1.03035,  -7.2142,   1
  3551,'LAOIS       ', 110.0000,1,     0.000,     0.000,   8,   1,1.01920,  -7.4825,   1
  3554,'LAOIS       ', 380.0000,1,     0.000,     0.000,   8,   1,1.03035,  -6.2142,   1
  3561,'LISDRUM     ', 110.0000,1,     0.000,     0.000,  10,   1,1.01061,  -6.5800,   1
  3581,'LETTERKE    ', 110.0000,1,     0.000,     0.000,   9,   1,1.00814,   1.1672,   1
  3601,'LIBERTY     ', 110.0000,1,     0.000,     0.000,   3,   1,0.99802,  -5.4954,   2
  3611,'LIBERTY     ', 110.0000,1,     0.000,     0.000,   3,   1,0.99808,  -5.4913,   2
  3621,'LISHEEN     ', 110.0000,1,     0.000,     0.000,   5,   1,1.00000,  -4.0703,   5
  3641,'LODGEWOO    ', 110.0000,1,     0.000,     0.000,   6,   1,1.01212,  -6.5167,   1
  3642,'LODGEWOO    ', 220.0000,1,     0.000,     0.000,   6,   1,1.01251,  -7.1317,   1
  3651,'CRORY       ', 110.0000,1,     0.000,     0.000,   5,   1,1.01212,  -6.5167,   1
  3751,'MISERY H    ', 110.0000,1,     0.000,     0.000,   1,   1,1.01951, -10.3370,   2
  3761,'MACETOWN    ', 110.0000,1,     0.000,     0.000,   1,   1,1.00450,  -9.3764,   1
  3781,'MCDERMOT    ', 110.0000,1,     0.000,     0.000,   1,   1,1.01699,  -9.5242,   2
  3801,'MIDLETON    ', 110.0000,1,     0.000,     0.000,   3,   1,0.99997,  -5.2806,   1
  3821,'MEATH HI    ', 110.0000,1,     0.000,     0.000,  10,   1,1.01637,  -7.2857,   2
  3841,'MAYNOOTH    ', 110.0000,1,     0.000,     0.000,   2,   1,1.00411,  -8.8248,   1
  3842,'MAYNOOTH    ', 220.0000,1,     0.000,     0.000,   2,   1,1.01104,  -8.6810,   1
  3851,'MAYNOOTH    ', 110.0000,1,     0.000,     0.000,   2,   1,1.00671,  -9.1533,   1
  3852,'MAYNOOTH    ', 220.0000,1,     0.000,     0.000,   2,   1,1.00975,  -8.3767,   1
  3861,'MILLTOWN    ', 110.0000,1,     0.000,     0.000,   1,   1,1.01986, -10.3102,   2
  3871,'MILLTOWN    ', 110.0000,1,     0.000,     0.000,   1,   1,1.01002, -10.0410,   2
  3881,'MACROOM     ', 110.0000,1,     0.000,     0.000,   3,   1,0.99999,  -4.7501,   1
  3901,'MONETEEN    ', 110.0000,1,     0.000,     0.000,   7,   1,0.99851,  -5.5048,   1
  3934,'MNYPG1      ', 380.0000,1,     0.000,     6.000,   4,   1,1.02525,  -4.2163,   1
  3941,'MONEYPOI    ', 110.0000,1,     0.000,     0.000,   4,   1,1.01852,  -5.0050,   1
  3942,'MONEYPOI    ', 220.0000,1,     0.000,     0.000,   4,   1,1.02546,  -4.4459,   1
  3944,'MNYPG3      ', 380.0000,1,     0.000,     6.000,   4,   1,1.02527,  -4.2149,   1
  3954,'MNYPG2      ', 380.0000,1,     0.000,     6.000,   4,   1,1.02465,  -4.1809,   1
  3961,'MARINA      ', 110.0000,1,     0.000,     0.000,   3,   1,0.99813,  -5.4869,   1
  3981,'MUNGRET     ', 110.0000,1,     0.000,     0.000,   7,   1,0.99836,  -5.5141,   5
  3991,'MUNGRET     ', 110.0000,1,     0.000,     0.000,   7,   1,0.99837,  -5.5136,   5
  4001,'MULLINGA    ', 110.0000,1,     0.000,     0.000,   9,   1,0.99701,  -7.2777,   1
  4021,'MALLOW      ', 110.0000,1,     0.000,     0.000,   3,   1,0.99605,  -5.8763,   1
  4041,'MOY         ', 110.0000,1,     0.000,     0.000,   9,   1,1.00743,  -2.2890,   1
  4061,'MULLAGHA    ', 110.0000,1,     0.000,     0.000,  10,   1,1.02201,  -7.2080,   2
  4071,'MEENTYCA    ', 110.0000,1,     0.000,     0.000,   9,   1,1.00955,   1.5921,   4
  4081,'MONREAD     ', 110.0000,1,     0.000,     0.000,   8,   1,0.99968,  -8.5946,   1
  4091,'MULREAVY    ', 110.0000,1,     0.000,     0.000,   9,   1,1.00000,   0.6524,   1
  4101,'NEWBURY     ', 110.0000,1,     0.000,     0.000,   1,   1,1.01388,  -9.8581,   2
  4111,'BANCROFT    ', 110.0000,1,     0.000,     0.000,   1,   1,1.00254,  -8.6441,   2
  4201,'NEWBRIDG    ', 110.0000,1,     0.000,     0.000,   8,   1,1.00143,  -7.9713,   1
  4211,'NORTH QU    ', 110.0000,1,     0.000,     0.000,   1,   1,1.01992, -10.2926,   2
  4221,'NAVAN       ', 110.0000,1,     0.000,     0.000,  10,   1,1.00718,  -8.0864,   1
  4242,'NORTH WA    ', 220.0000,1,     0.000,     0.000,   2,   1,1.01430,  -8.3918,   1
  4251,'NORE        ', 110.0000,1,     0.000,     0.000,   6,   1,1.02026,  -8.1862,   1
  4261,'NENAGH      ', 110.0000,1,     0.000,     0.000,   7,   1,0.99448,  -5.6673,   2
  4281,'NANGOR      ', 110.0000,1,     0.000,     0.000,   1,   1,0.99754, -11.2909,   2
  4341,'OLDCOURT    ', 110.0000,1,     0.000,     0.000,   3,   1,0.99920,  -5.1946,   5
  4351,'OLDCOURT    ', 110.0000,1,     0.000,     0.000,   3,   1,0.99927,  -5.1896,   5
  4361,'OUGHTRAG    ', 110.0000,1,     0.000,     0.000,   7,   1,1.00306,  -5.1197,   2
  4371,'GLENREE     ', 110.0000,1,     0.000,     0.000,   9,   1,1.00504,  -1.7234,   1
  4382,'OLDSTREE    ', 220.0000,1,     0.000,     0.000,   4,   1,1.02784,  -5.3436,   1
  4384,'OLDSTREE    ', 380.0000,1,     0.000,     0.000,   4,   1,1.02909,  -5.7686,   1
  4401,'POPPINTR    ', 110.0000,1,     0.000,     0.000,   1,   1,1.01365,  -9.8012,   2
  4441,'POLLAPHU    ', 110.0000,1,     0.000,     0.000,   6,   1,1.02881,  -8.1863,   1
  4461,'POOLBEG     ', 110.0000,1,     0.000,     0.000,   2,   1,1.01974, -10.2422,   2
  4462,'POOLBEG     ', 220.0000,1,     0.000,     0.000,   2,   1,1.01395,  -8.3788,   1
  4471,'POOLBEG     ', 110.0000,1,     0.000,     0.000,   2,   1,1.01975, -10.2436,   2
  4472,'POOLBEG     ', 220.0000,1,     0.000,     0.000,   2,   1,1.01123,  -8.9544,   1
  4481,'PORTLAOI    ', 110.0000,1,     0.000,     0.000,   8,   1,1.01192,  -7.1194,   1
  4491,'PELLETST    ', 110.0000,1,     0.000,     0.000,   1,   1,1.01705,  -9.4998,   2
  4501,'PLATIN      ', 110.0000,1,     0.000,     0.000,  10,   1,1.00592,  -8.5431,   1
  4511,'POTTERY     ', 110.0000,1,     0.000,     0.000,   1,   1,1.00448,  -9.3701,   2
  4522,'PROSPECT    ', 220.0000,1,     0.000,     0.000,   7,   1,1.02540,  -4.4400,   1
  4611,'RALAPPAN    ', 110.0000,1,     0.000,     0.000,   7,   1,1.00632,  -5.3386,   1
  4621,'RYEBROOK    ', 110.0000,1,     0.000,     0.000,   2,   1,0.99805,  -9.8358,   1
  4651,'RINGSEND    ', 110.0000,1,     0.000,     0.000,   1,   1,1.01993, -10.2866,   2
  4681,'RATHKEAL    ', 110.0000,1,     0.000,     0.000,   7,   1,0.99919,  -5.3706,   1
  4701,'RICHMOND    ', 110.0000,1,     0.000,     0.000,   9,   1,0.99813,  -3.5964,   2
  4711,'RICHMOND    ', 110.0000,1,     0.000,     0.000,   9,   1,0.99813,  -3.5964,   1
  4721,'RAFFEEN     ', 110.0000,1,     0.000,     0.000,   3,   1,0.99901,  -5.1164,   1
  4722,'RAFFEEN     ', 220.0000,1,     0.000,     0.000,   3,   1,0.99757,  -4.0082,   1
  4731,'RAFFEENB    ', 110.0000,1,     0.000,     0.000,   3,   1,0.99792,  -5.1833,   1
  4741,'RINAWADE    ', 110.0000,1,     0.000,     0.000,   2,   1,1.00512,  -9.0982,   1
  4761,'RINGASKI    ', 110.0000,1,     0.000,     0.000,   3,   1,0.99787,  -5.1875,   2
  4781,'RATRUSSA    ', 110.0000,1,     0.000,     0.000,  10,   1,1.00605,  -5.1478,   1
  4901,'SHELTON     ', 110.0000,1,     0.000,     0.000,   6,   1,1.01244,  -7.6496,   5
  4911,'SUIR        ', 110.0000,1,     0.000,     0.000,   5,   1,1.00070,  -5.6257,   4
  4941,'SHANNONB    ', 110.0000,1,     0.000,     0.000,   5,   1,1.00000,  -4.4429,   1
  4942,'SHANNONB    ', 220.0000,1,     0.000,     0.000,   5,   1,1.01009,  -5.7126,   1
  4943,'SHANNONB    ', 220.0000,1,     0.000,     0.000,   5,   1,1.01009,  -5.7126,   1
  4951,'SALTHILL    ', 110.0000,1,     0.000,     0.000,   9,   1,1.01849,  -4.4170,   2
  4961,'SHANKILL    ', 110.0000,1,     0.000,     0.000,  10,   1,1.00375,  -5.6414,   1
  4981,'SLIGO       ', 110.0000,1,     0.000,     0.000,   9,   1,1.01299,  -2.5313,   1
  4991,'SORNE HI    ', 110.0000,1,     0.000,     0.000,   9,   1,1.00466,   3.1841,   2
  5001,'SOMERSET    ', 110.0000,1,     0.000,     0.000,   9,   1,1.00399,  -4.5695,   2
  5022,'SHELLYBA    ', 220.0000,1,     0.000,     0.000,   2,   1,1.01400,  -8.3775,   1
  5031,'STEPHENS    ', 110.0000,1,     0.000,     0.000,   1,   1,1.01260, -10.1871,   2
  5041,'SRANANAG    ', 110.0000,1,     0.000,     0.000,   9,   1,1.01401,  -2.4153,   1
  5042,'SRANANAG    ', 220.0000,1,     0.000,     0.000,   9,   1,1.02858,  -3.1963,   1
  5051,'SEAL ROC    ', 110.0000,1,     0.000,     0.000,   7,   1,1.00024,  -4.3369,   4
  5061,'STRATFOR    ', 110.0000,1,     0.000,     0.000,   6,   1,1.02834,  -8.1987,   2
  5071,'SEAL ROC    ', 110.0000,1,     0.000,     0.000,   7,   1,1.00024,  -4.3369,   4
  5091,'SINGLAND    ', 110.0000,1,     0.000,     0.000,   7,   1,1.00184,  -5.5514,   1
  5122,'SHELLYBA    ', 220.0000,1,     0.000,     0.000,   2,   1,1.00504,  -7.9861,   1
  5131,'TANEY       ', 110.0000,1,     0.000,     0.000,   1,   1,1.00470,  -9.3727,   2
  5141,'TARBERT     ', 110.0000,1,     0.000,     0.000,   7,   1,1.02407,  -4.4079,   1
  5142,'TARBERT     ', 220.0000,1,     0.000,     0.000,   7,   1,1.02407,  -4.4079,   1
  5172,'TYNAGH      ', 220.0000,1,     0.000,     0.000,   4,   1,1.02760,  -5.1397,   1
  5181,'TRABEG      ', 110.0000,1,     0.000,     0.000,   3,   1,0.99808,  -5.4768,   1
  5191,'TIEVEBRA    ', 110.0000,1,     0.000,     0.000,   9,   1,1.00013,  -0.1209,   1
  5202,'TURLOUGH    ', 220.0000,1,     0.000,     0.000,   2,   1,1.00771, -10.2055,   1
  5221,'TULLABRA    ', 110.0000,1,     0.000,     0.000,   4,   1,1.01653,  -4.8866,   2
  5222,'SHELLYBA    ', 220.0000,1,     0.000,     0.000,   2,   1,1.00504,  -7.9861,   1
  5231,'TRINITY     ', 110.0000,1,     0.000,     0.000,   1,   1,1.01938, -10.3505,   2
  5241,'TAWNAGHM    ', 110.0000,1,     0.000,     0.000,   9,   1,1.00747,  -2.2900,   2
  5251,'TAWN_B      ', 110.0000,1,     0.000,     0.000,   9,   1,1.00747,  -2.2900,   2
  5261,'TRIEN       ', 110.0000,1,     0.000,     0.000,   7,   1,1.00534,  -4.9138,   1
  5271,'CAUTEEN     ', 110.0000,1,     0.000,     0.000,   5,   1,1.00112,  -4.8353,   1
  5281,'TRALEE      ', 110.0000,1,     0.000,     0.000,   7,   1,1.00602,  -4.7588,   1
  5301,'THURLES     ', 110.0000,1,     0.000,     0.000,   5,   1,0.99936,  -4.3417,   1
  5321,'THORNSBE    ', 110.0000,1,     0.000,     0.000,   8,   1,0.99911,  -6.8337,   2
  5341,'TONROE      ', 110.0000,1,     0.000,     0.000,   9,   1,1.00604,  -3.9990,   2
  5361,'TRILLICK    ', 110.0000,1,     0.000,     0.000,   9,   1,1.00486,   2.9961,   2
  5381,'TIPPERAR    ', 110.0000,1,     0.000,     0.000,   5,   1,1.00004,  -5.2457,   1
  5441,'WATERFOR    ', 110.0000,1,     0.000,     0.000,   5,   1,1.00995,  -7.4300,   1
  5462,'WOODLAND    ', 220.0000,1,     0.000,     0.000,   2,   1,1.01121,  -8.1292,   1
  5464,'WOODLAND    ', 380.0000,1,     0.000,     0.000,   2,   1,1.01895,  -7.9919,   1
  5481,'WHITEGAT    ', 110.0000,1,     0.000,     0.000,   3,   1,1.00046,  -5.0660,   1
  5501,'WEXFORD     ', 110.0000,1,     0.000,     0.000,   6,   1,1.01113,  -7.0053,   1
  5521,'WOLFE TO    ', 110.0000,1,     0.000,     0.000,   1,   1,1.01692,  -9.5299,   2