0,   100.00          / PSS/E-30.3    MON, NOV 18 2013  18:10
AITYTFS Summer Night Valley 2016

    10,'F_M         ',  38.0000,1,     0.000,     0.000,   2,   1,1.02876, -24.2870,   2
    11,'FMN LOOP    ',  38.0000,1,     0.000,     0.000,   2,   1,1.02736, -23.5490,   2
    12,'BEDFORD     ',  38.0000,1,     0.000,     0.000,   1,   1,1.02382, -23.6225,   2
    13,'M_R         ',  38.0000,1,     0.000,     0.000,   1,   1,1.02676, -23.5392,   2
    14,'F_I         ',  38.0000,1,     0.000,     0.000,   2,   1,1.04458, -24.3068,   2
    15,'I_M         ',  38.0000,1,     0.000,     0.000,   2,   1,1.02070, -23.9731,   2
  1021,'ARDNACRU    ', 110.0000,1,     0.000,     0.000,   4,   1,1.00194, -13.0147,   1
  1041,'AGHADA      ', 110.0000,1,     0.000,     0.000,   3,   1,0.99905, -13.2976,   1
  1042,'AGHADA      ', 220.0000,1,     0.000,     0.000,   3,   1,1.00000, -12.5270,   1
  1052,'AGHADA_B    ', 220.0000,1,     0.000,     0.000,   3,   1,0.99767, -12.2144,   1
  1061,'ARIGNA      ', 110.0000,1,     0.000,     0.000,   9,   1,0.99913, -15.6547,   2
  1062,'AGH_AT14    ', 220.0000,1,     0.000,     0.000,   3,   1,1.00000, -12.5270,   1
  1071,'AGANNYGA    ', 110.0000,1,     0.000,     0.000,   4,   1,1.00078, -12.6010,   1
  1072,'AGHT2102    ', 220.0000,1,     0.000,     0.000,   3,   1,1.00000, -12.5308,   1
  1081,'AHANE       ', 110.0000,1,     0.000,     0.000,   7,   1,1.00437, -12.9187,   2
  1091,'ADAMSTOW    ', 110.0000,1,     0.000,     0.000,   1,   1,0.99120, -24.1151,   2
  1101,'ANNER       ', 110.0000,1,     0.000,     0.000,   5,   1,0.99386, -15.9879,   5
  1121,'ARKLOW      ', 110.0000,1,     0.000,     0.000,   6,   1,1.00291, -20.1869,   1
  1122,'ARKLOW      ', 220.0000,1,     0.000,     0.000,   6,   1,0.99903, -19.8034,   1
  1131,'ATHEA       ', 110.0000,1,     0.000,     0.000,   7,   1,0.99959,  -6.1754,   4
  1141,'ATHLONE     ', 110.0000,1,     0.000,     0.000,   9,   1,0.99796, -15.6104,   1
  1151,'ATHEA-2     ', 110.0000,1,     0.000,     0.000,   7,   1,0.99959,  -6.1754,   1
  1161,'AUGHINIS    ', 110.0000,1,     0.000,     0.000,   7,   1,1.00000, -10.2206,   1
  1181,'ARVA        ', 110.0000,1,     0.000,     0.000,  10,   1,0.99706, -18.7739,   1
  1201,'ARTANE      ', 110.0000,1,     0.000,     0.000,   1,   1,1.00899, -22.5978,   2
  1211,'BALLYVOU    ', 110.0000,1,     0.000,     0.000,   3,   1,1.05674,  -7.8507,   1
  1212,'BALLYVOU    ', 220.0000,1,     0.000,     0.000,   3,   1,0.99846,  -8.7253,   1
  1221,'ATHY        ', 110.0000,1,     0.000,     0.000,   8,   1,1.00754, -19.5367,   1
  1231,'BALLYWAT    ', 110.0000,1,     0.000,     0.000,   6,   1,1.00254, -18.1578,   4
  1251,'BOOLTIAG    ', 110.0000,1,     0.000,     0.000,   4,   1,1.00707, -11.5168,   2
  1271,'BALTRASN    ', 110.0000,1,     0.000,     0.000,  10,   1,1.00026, -22.1323,   1
  1281,'BALLYLIC    ', 110.0000,1,     0.000,     0.000,   3,   1,0.99929, -11.3506,   2
  1301,'BALLYBEG    ', 110.0000,1,     0.000,     0.000,   6,   1,1.00039, -21.0190,   1
  1311,'CORDAL      ', 110.0000,1,     0.000,     0.000,   3,   1,0.99884,  -6.3112,   1
  1321,'BLAKE       ', 110.0000,1,     0.000,     0.000,   8,   1,0.99602, -20.8659,   2
  1341,'BINBANE     ', 110.0000,1,     0.000,     0.000,   9,   1,0.99640, -13.7069,   2
  1351,'BARODA      ', 110.0000,1,     0.000,     0.000,   8,   1,0.99366, -20.7190,   1
  1361,'BALLYDIN    ', 110.0000,1,     0.000,     0.000,   5,   1,0.99615, -16.4969,   1
  1381,'BARNAHEL    ', 110.0000,1,     0.000,     0.000,   3,   1,0.99723, -13.3814,   1
  1391,'BARNAHEL    ', 110.0000,1,     0.000,     0.000,   3,   1,0.99410, -13.3764,   1
  1401,'BELLACOR    ', 110.0000,1,     0.000,     0.000,   9,   1,1.01314, -15.2163,   1
  1421,'BLACKROC    ', 110.0000,1,     0.000,     0.000,   1,   1,0.99748, -22.1423,   2
  1441,'BANDON      ', 110.0000,1,     0.000,     0.000,   3,   1,0.98891, -12.9884,   1
  1451,'CLOGHRAN    ', 110.0000,1,     0.000,     0.000,   1,   1,0.99632, -22.5588,   1
  1461,'BARRYMOR    ', 110.0000,1,     0.000,     0.000,   5,   1,0.99574, -14.0922,   2
  1481,'BUTLERST    ', 110.0000,1,     0.000,     0.000,   5,   1,0.99787, -17.8766,   1
  1492,'BALLAKEL    ', 220.0000,1,     0.000,     0.000,  10,   1,1.01532, -20.1176,   1
  1501,'BRINNY      ', 110.0000,1,     0.000,     0.000,   3,   1,0.98874, -12.9985,   5
  1511,'KNOCKNAG    ', 110.0000,1,     0.000,     0.000,   7,   1,1.00000,  -5.8564,   1
  1541,'BANOGE      ', 110.0000,1,     0.000,     0.000,   6,   1,1.00132, -19.3154,   1
  1551,'BOGGERAG    ', 110.0000,1,     0.000,     0.000,   3,   1,1.00000,  -6.9941,   1
  1571,'ARDNAGAP    ', 110.0000,1,     0.000,     0.000,   9,   1,0.99336, -13.3121,   2
  1581,'CABRA       ', 110.0000,1,     0.000,     0.000,   1,   1,1.00887, -22.6124,   2
  1601,'CLASHAVO    ', 110.0000,1,     0.000,     0.000,   3,   1,0.99738, -11.8390,   1
  1602,'CLASHAVO    ', 220.0000,1,     0.000,     0.000,   3,   1,0.99845,  -9.8245,   1
  1611,'CLONKEEN    ', 110.0000,1,     0.000,     0.000,   7,   1,0.99960, -11.2557,   1
  1621,'COOLROE     ', 110.0000,1,     0.000,     0.000,   3,   1,0.99550, -13.0947,   1
  1631,'CORDERRY    ', 110.0000,1,     0.000,     0.000,   9,   1,1.00169, -15.0248,   1
  1641,'CASHLA      ', 110.0000,1,     0.000,     0.000,   9,   1,1.01372, -15.1982,   1
  1642,'CASHLA      ', 220.0000,1,     0.000,     0.000,   9,   1,1.01707, -15.5069,   1
  1651,'CLAHANE     ', 110.0000,1,     0.000,     0.000,   7,   1,1.00731,  -9.5592,   1
  1661,'CASTLEBA    ', 110.0000,1,     0.000,     0.000,   9,   1,1.03000, -15.8688,   1
  1681,'CARRIGAD    ', 110.0000,1,     0.000,     0.000,   3,   1,0.99623, -12.3032,   1
  1691,'CENTRAL     ', 110.0000,1,     0.000,     0.000,   1,   1,0.99759, -22.0940,   1
  1701,'CATH_FAL    ', 110.0000,1,     0.000,     0.000,   9,   1,0.99881, -13.9061,   1
  1711,'CROMCAST    ', 110.0000,1,     0.000,     0.000,   1,   1,1.01797, -23.5970,   1
  1721,'CAHIR       ', 110.0000,1,     0.000,     0.000,   5,   1,0.99692, -14.7838,   1
  1731,'CROMCAST    ', 110.0000,1,     0.000,     0.000,   1,   1,1.01797, -23.5970,   1
  1741,'CARRICKM    ', 110.0000,1,     0.000,     0.000,   2,   1,0.99735, -22.0730,   1
  1742,'CARRICKM    ', 220.0000,1,     0.000,     0.000,   2,   1,0.99790, -20.9202,   1
  1761,'CLIFF       ', 110.0000,1,     0.000,     0.000,   9,   1,0.99883, -13.9065,   1
  1781,'CASTLEFA    ', 110.0000,1,     0.000,     0.000,   7,   1,0.99962, -10.2413,   5
  1791,'BRACKLON    ', 110.0000,1,     0.000,     0.000,   8,   1,0.99602, -19.9275,   1
  1801,'COOKSTOW    ', 110.0000,1,     0.000,     0.000,   1,   1,0.99772, -22.1280,   2
  1821,'CLOON       ', 110.0000,1,     0.000,     0.000,   9,   1,1.01424, -15.5338,   1
  1831,'SCREEB      ', 110.0000,1,     0.000,     0.000,   9,   1,1.01254, -15.4064,   2
  1841,'CRANE       ', 110.0000,1,     0.000,     0.000,   6,   1,1.00145, -18.3792,   1
  1851,'CHERRYWO    ', 110.0000,1,     0.000,     0.000,   2,   1,0.99565, -22.1770,   1
  1861,'CARICKON    ', 110.0000,1,     0.000,     0.000,   9,   1,1.00004, -16.6616,   1
  1871,'COLLEGE     ', 110.0000,1,     0.000,     0.000,   2,   1,0.99815, -22.3979,   1
  1881,'CHARLEVI    ', 110.0000,1,     0.000,     0.000,   3,   1,0.99713, -13.4494,   1
  1891,'CAULSTOW    ', 110.0000,1,     0.000,     0.000,  10,   1,1.00068, -21.9175,   1
  1901,'CARLOW      ', 110.0000,1,     0.000,     0.000,   6,   1,1.01402, -19.9167,   1
  1911,'CUILLEEN    ', 110.0000,1,     0.000,     0.000,   9,   1,0.99799, -15.6114,   1
  1921,'COW CROS    ', 110.0000,1,     0.000,     0.000,   3,   1,0.99735, -13.4476,   1
  1931,'CUNGHILL    ', 110.0000,1,     0.000,     0.000,   9,   1,1.00146, -14.6090,   4
  1941,'CUSHALIN    ', 110.0000,1,     0.000,     0.000,   8,   1,1.00000, -17.8216,   1
  1951,'CARROWBE    ', 110.0000,1,     0.000,     0.000,   9,   1,1.02862, -16.2323,   1
  1961,'CASTLEVI    ', 110.0000,1,     0.000,     0.000,   3,   1,0.99676, -13.5846,   1
  1971,'COOMAGEA    ', 110.0000,1,     0.000,     0.000,   7,   1,1.04785,  -6.3542,   4
  1981,'CORRACLA    ', 110.0000,1,     0.000,     0.000,   9,   1,0.99355, -17.4390,   1
  1991,'CASTLEDO    ', 110.0000,1,     0.000,     0.000,   6,   1,1.00033, -18.0925,   1
  2001,'CULLENAG    ', 110.0000,1,     0.000,     0.000,   5,   1,0.99802, -17.4610,   1
  2002,'CULLENAG    ', 220.0000,1,     0.000,     0.000,   5,   1,0.99903, -17.1337,   1
  2021,'CITY WES    ', 110.0000,1,     0.000,     0.000,   1,   1,0.98912, -24.3996,   2
  2041,'CORDUFF     ', 110.0000,1,     0.000,     0.000,   2,   1,0.99843, -22.3426,   1
  2042,'CORDUFF     ', 220.0000,1,     0.000,     0.000,   2,   1,1.00482, -21.5539,   1
  2051,'BLACKPOO    ', 110.0000,1,     0.000,     0.000,   3,   1,0.99569, -13.5470,   1
  2052,'CORDUFFB    ', 220.0000,1,     0.000,     0.000,   2,   1,1.00482, -21.5539,   1
  2081,'DUNKETTL    ', 110.0000,4,     0.000,     0.000,   3,   1,1.00000,   0.0000,   5
  2090,'WEST GAL    ', 110.0000,1,     0.000,     0.000,   9,   1,1.00524, -13.6446,   1
  2091,'WEST GAL    ', 110.0000,1,     0.000,     0.000,   9,   1,1.01429, -15.2352,   1
  2101,'DUNDALK     ', 110.0000,1,     0.000,     0.000,  10,   1,1.01816, -20.8967,   2
  2111,'UGOOL       ', 110.0000,1,     0.000,     0.000,   9,   1,1.00000, -12.9059,   1
  2121,'DRUMLINE    ', 110.0000,1,     0.000,     0.000,   4,   1,0.99931, -13.1896,   1
  2131,'DROMADA     ', 110.0000,1,     0.000,     0.000,   3,   1,1.00000,  -6.0848,   1
  2141,'DUNGARVA    ', 110.0000,1,     0.000,     0.000,   5,   1,0.99682, -16.3810,   1
  2161,'DOON        ', 110.0000,1,     0.000,     0.000,   5,   1,0.99462, -15.9547,   1
  2181,'DRYBRIDG    ', 110.0000,1,     0.000,     0.000,  10,   1,1.00337, -21.7601,   1
  2202,'DUNSTOWN    ', 220.0000,1,     0.000,     0.000,   2,   1,1.00384, -21.7623,   1
  2204,'DUNSTOWN    ', 380.0000,1,     0.000,     0.000,   2,   1,1.01488, -21.0301,   1
  2221,'DUNMANWA    ', 110.0000,1,     0.000,     0.000,   3,   1,0.99345, -12.0052,   1
  2231,'DERRYBRI    ', 110.0000,1,     0.000,     0.000,   4,   1,1.00133, -12.1473,   2
  2241,'DALLOW      ', 110.0000,1,     0.000,     0.000,   5,   1,0.99906, -15.6718,   2
  2251,'DARDISTO    ', 110.0000,1,     0.000,     0.000,   1,   1,1.01812, -23.5815,   2
  2261,'DERRYIRO    ', 110.0000,1,     0.000,     0.000,   8,   1,0.99474, -20.2952,   1
  2281,'DALTON      ', 110.0000,1,     0.000,     0.000,   9,   1,1.02338, -15.8455,   1
  2301,'DUNFIRTH    ', 110.0000,1,     0.000,     0.000,   8,   1,0.99638, -21.3247,   2
  2321,'DRUMKEEN    ', 110.0000,1,     0.000,     0.000,   9,   1,1.00721, -11.8699,   1
  2361,'ENNIS       ', 110.0000,1,     0.000,     0.000,   4,   1,1.00000, -13.0129,   1
  2391,'KILL HIL    ', 110.0000,1,     0.000,     0.000,   5,   1,0.99951, -14.0918,   1
  2401,'MOUNTLUC    ', 110.0000,1,     0.000,     0.000,   8,   1,1.00000, -18.0587,   1
  2411,'KNOCKMUL    ', 110.0000,1,     0.000,     0.000,   6,   1,0.99858, -18.2751,   1
  2481,'FASS EAS    ', 110.0000,1,     0.000,     0.000,   2,   1,0.99589, -22.1694,   2
  2491,'FASS WES    ', 110.0000,1,     0.000,     0.000,   2,   1,0.99596, -22.1647,   2
  2521,'FLAGFORD    ', 110.0000,1,     0.000,     0.000,   9,   1,1.00027, -16.6364,   1
  2522,'FLAGFORD    ', 220.0000,1,     0.000,     0.000,   9,   1,1.01242, -16.8245,   1
  2541,'FRN ST A    ', 110.0000,1,     0.000,     0.000,   1,   1,1.00340, -21.8354,   2
  2551,'FRN ST B    ', 110.0000,1,     0.000,     0.000,   1,   1,1.00425, -22.8413,   2
  2561,'FIN_URBA    ', 110.0000,1,     0.000,     0.000,   2,   1,1.00906, -22.5347,   2
  2562,'FINGLAS     ', 220.0000,1,     0.000,     0.000,   2,   1,1.00522, -21.5419,   1
  2563,'FINGLAS2    ', 220.0000,1,     0.000,     0.000,   2,   1,1.00522, -21.5419,   1
  2571,'FIN_RURA    ', 110.0000,1,     0.000,     0.000,   2,   1,1.01802, -23.4478,   2
  2581,'KILDONAN    ', 110.0000,1,     0.000,     0.000,   2,   1,0.99753, -22.4734,   2
  2671,'GARVAGH     ', 110.0000,1,     0.000,     0.000,   9,   1,1.00113, -14.7664,   4
  2681,'GILRA       ', 110.0000,1,     0.000,     0.000,   9,   1,0.99731, -16.8234,   2
  2701,'GLASMORE    ', 110.0000,1,     0.000,     0.000,   1,   1,1.01561, -23.9324,   2
  2721,'GRIFFINR    ', 110.0000,1,     0.000,     0.000,   2,   1,0.99664, -21.7635,   2
  2731,'GLANLEE     ', 110.0000,1,     0.000,     0.000,   7,   1,1.04750,  -6.3314,   4
  2741,'GREAT IS    ', 110.0000,1,     0.000,     0.000,   6,   1,0.99986, -18.1598,   1
  2742,'GREAT IS    ', 220.0000,1,     0.000,     0.000,   6,   1,1.00030, -17.9921,   1
  2761,'GRANGE      ', 110.0000,1,     0.000,     0.000,   1,   1,1.01814, -23.6012,   2
  2771,'GARROW      ', 110.0000,1,     0.000,     0.000,   7,   1,1.05191,  -7.1161,   7
  2780,'GALWAY      ', 110.0000,1,     0.000,     0.000,   9,   1,1.01315, -15.0609,   1
  2781,'GALWAY      ', 110.0000,1,     0.000,     0.000,   9,   1,1.01315, -15.0609,   1
  2801,'GOLAGH      ', 110.0000,1,     0.000,     0.000,   9,   1,0.99974, -12.6024,   4
  2821,'GORTAWEE    ', 110.0000,1,     0.000,     0.000,   9,   1,0.99121, -18.0607,   1
  2841,'GORMAN      ', 110.0000,1,     0.000,     0.000,  10,   1,1.00386, -21.5125,   1
  2842,'GORMAN      ', 220.0000,1,     0.000,     0.000,  10,   1,1.00943, -20.9840,   1
  2852,'GLANAGOW    ', 220.0000,1,     0.000,     0.000,   3,   1,0.99748, -12.1904,   1
  2861,'GRANGE C    ', 110.0000,1,     0.000,     0.000,   1,   1,0.99134, -24.1037,   2
  2870,'CLOGHER     ', 110.0000,1,     0.000,     0.000,   9,   1,1.00026, -12.7382,   1
  2871,'CLOGHER     ', 110.0000,1,     0.000,     0.000,   9,   1,1.00026, -12.7382,   1
  2881,'GLENLARA    ', 110.0000,1,     0.000,     0.000,   3,   1,0.99739, -13.2390,   2
  2941,'HAROLDS     ', 110.0000,1,     0.000,     0.000,   1,   1,1.00349, -21.8231,   2
  2951,'HEUSTON     ', 110.0000,1,     0.000,     0.000,   1,   1,1.00433, -22.8322,   2
  2962,'HUNTSTOW    ', 220.0000,1,     0.000,     0.000,   2,   1,1.00475, -21.4891,   4
  2972,'HUNTSTOW    ', 220.0000,1,     0.000,     0.000,   2,   1,1.00494, -21.5546,   4
  2981,'HARTNETT    ', 110.0000,1,     0.000,     0.000,   3,   1,0.99596, -12.2269,   2
  3061,'INISCARR    ', 110.0000,1,     0.000,     0.000,   3,   1,0.99563, -12.9790,   1
  3081,'INCH_CIT    ', 110.0000,1,     0.000,     0.000,   2,   1,1.00434, -22.8101,   2
  3082,'INCHICOR    ', 220.0000,1,     0.000,     0.000,   2,   1,1.00350, -21.6456,   1
  3091,'INCH_COU    ', 110.0000,1,     0.000,     0.000,   2,   1,0.99401, -23.9595,   2
  3101,'IKERRIN     ', 110.0000,1,     0.000,     0.000,   5,   1,0.99900, -14.2710,   2
  3122,'IRISHTOW    ', 220.0000,1,     0.000,     0.000,   2,   1,1.00000, -20.9554,   1
  3190,'NORTH KE    ', 110.0000,1,     0.000,     0.000,   7,   1,1.00610,  -9.7113,   1
  3191,'NORTH KE    ', 110.0000,1,     0.000,     0.000,   7,   1,1.00046,  -6.8449,   1
  3192,'NORTH KE    ', 220.0000,1,     0.000,     0.000,   7,   1,1.01005,  -8.5013,   1
  3200,'KNOCKRAH    ', 110.0000,1,     0.000,     0.000,   3,   1,0.99893, -12.5573,   1
  3201,'KNOCKRAH    ', 110.0000,1,     0.000,     0.000,   3,   1,0.99764, -13.5289,   1
  3202,'KNOCKRAH    ', 220.0000,1,     0.000,     0.000,   3,   1,0.99893, -12.5573,   1
  3203,'KNOCKRAH    ', 220.0000,1,     0.000,     0.000,   3,   1,0.99893, -12.5573,   1
  3209,'KNOCKRAH    ', 110.0000,1,     0.000,     0.000,   3,   1,0.99764, -13.5289,   1
  3211,'KNOCKAVA    ', 110.0000,1,     0.000,     0.000,   4,   1,1.00084, -12.2206,   1
  3221,'KILBARRY    ', 110.0000,1,     0.000,     0.000,   3,   1,0.99570, -13.5462,   1
  3241,'KILTEEL     ', 110.0000,1,     0.000,     0.000,   8,   1,0.99291, -21.4050,   2
  3251,'REAMORE     ', 110.0000,1,     0.000,     0.000,   7,   1,1.00653,  -9.5302,   1
  3261,'KILKENNY    ', 110.0000,1,     0.000,     0.000,   6,   1,1.00522, -19.9057,   1
  3281,'KILLONAN    ', 110.0000,1,     0.000,     0.000,   7,   1,1.00439, -12.9131,   1
  3282,'KILLONAN    ', 220.0000,1,     0.000,     0.000,   7,   1,0.99910, -12.5893,   1
  3301,'KNOCKERA    ', 110.0000,1,     0.000,     0.000,   7,   1,1.00059, -10.8529,   1
  3321,'KNOCKUMB    ', 110.0000,1,     0.000,     0.000,  10,   1,0.99837, -21.7659,   5
  3330,'BALLYNAH    ', 110.0000,1,     0.000,     0.000,   3,   1,0.99768,  -6.8112,   1
  3331,'BALLYNAH    ', 110.0000,1,     0.000,     0.000,   3,   1,0.99768,  -6.8112,   1
  3332,'BALLYNAH    ', 220.0000,1,     0.000,     0.000,   3,   1,1.00176,  -8.3016,   1
  3341,'KELLIS      ', 110.0000,1,     0.000,     0.000,   6,   1,1.01543, -19.9702,   1
  3342,'KELLIS      ', 220.0000,1,     0.000,     0.000,   6,   1,0.99736, -19.9902,   1
  3361,'KILTOY      ', 110.0000,1,     0.000,     0.000,   9,   1,1.00741, -12.0575,   5
  3381,'KINNEGAD    ', 110.0000,1,     0.000,     0.000,   8,   1,0.99435, -20.4712,   1
  3391,'KNOCKACU    ', 110.0000,1,     0.000,     0.000,   3,   1,1.00000,  -5.6884,   1
  3401,'KILLOTER    ', 110.0000,1,     0.000,     0.000,   5,   1,0.99811, -17.9250,   1
  3421,'KILMORE     ', 110.0000,1,     0.000,     0.000,   1,   1,1.01796, -23.5966,   2
  3431,'KILMAHUD    ', 110.0000,1,     0.000,     0.000,   1,   1,0.99105, -24.1228,   1
  3462,'KILPADDO    ', 220.0000,1,     0.000,     0.000,   7,   1,1.01345,  -9.2009,   1
  3472,'KILPADDO    ', 220.0000,1,     0.000,     0.000,   7,   1,1.01252,  -9.5368,   1
  3501,'LANESBOR    ', 110.0000,1,     0.000,     0.000,   9,   1,1.00000, -15.5536,   1
  3521,'LOUTHA      ', 110.0000,1,     0.000,     0.000,  10,   1,1.02251, -20.6537,   1
  3522,'LOUTH       ', 220.0000,1,     0.000,     0.000,  10,   1,1.01531, -20.1175,   1
  3541,'LIMERICK    ', 110.0000,1,     0.000,     0.000,   7,   1,1.00143, -12.7486,   1
  3561,'LISDRUM     ', 110.0000,1,     0.000,     0.000,  10,   1,1.00635, -20.1215,   1
  3581,'LETTERKE    ', 110.0000,1,     0.000,     0.000,   9,   1,1.00740, -12.0572,   1
  3601,'LIBERTY     ', 110.0000,1,     0.000,     0.000,   3,   1,0.99542, -13.5932,   2
  3611,'LIBERTY     ', 110.0000,1,     0.000,     0.000,   3,   1,0.99555, -13.5912,   2
  3621,'LISHEEN     ', 110.0000,1,     0.000,     0.000,   5,   1,1.00000, -13.8433,   5
  3641,'LODGEWOO    ', 110.0000,1,     0.000,     0.000,   6,   1,1.00079, -18.1744,   1
  3642,'LODGEWOO    ', 220.0000,1,     0.000,     0.000,   6,   1,1.00088, -18.8116,   1
  3651,'CRORY       ', 110.0000,1,     0.000,     0.000,   5,   1,1.00079, -18.1744,   1
  3751,'MISERY H    ', 110.0000,1,     0.000,     0.000,   1,   1,1.00352, -21.8064,   2
  3761,'MACETOWN    ', 110.0000,1,     0.000,     0.000,   1,   1,0.99719, -22.4851,   1
  3781,'MCDERMOT    ', 110.0000,1,     0.000,     0.000,   1,   1,1.00887, -22.6137,   2
  3801,'MIDLETON    ', 110.0000,1,     0.000,     0.000,   3,   1,0.99711, -13.5624,   1
  3821,'MEATH HI    ', 110.0000,1,     0.000,     0.000,  10,   1,1.01272, -20.9093,   2
  3841,'MAYNOOTH    ', 110.0000,1,     0.000,     0.000,   2,   1,0.99721, -21.7165,   1
  3842,'MAYNOOTH    ', 220.0000,1,     0.000,     0.000,   2,   1,1.00410, -21.8306,   1
  3851,'MAYNOOTH    ', 110.0000,1,     0.000,     0.000,   2,   1,0.99921, -22.0321,   1
  3852,'MAYNOOTH    ', 220.0000,1,     0.000,     0.000,   2,   1,1.00179, -21.3191,   1
  3861,'MILLTOWN    ', 110.0000,1,     0.000,     0.000,   1,   1,1.00374, -21.7779,   2
  3871,'MILLTOWN    ', 110.0000,1,     0.000,     0.000,   1,   1,1.00368, -22.8712,   2
  3881,'MACROOM     ', 110.0000,1,     0.000,     0.000,   3,   1,0.99626, -12.2084,   1
  3901,'MONETEEN    ', 110.0000,1,     0.000,     0.000,   7,   1,0.99968, -12.3584,   1
  3934,'MNYPG1      ', 380.0000,1,     0.000,     6.000,   4,   1,1.04110, -20.5619,   1
  3941,'MONEYPOI    ', 110.0000,1,     0.000,     0.000,   4,   1,1.01452, -10.5005,   1
  3942,'MONEYPOI    ', 220.0000,1,     0.000,     0.000,   4,   1,1.01413,  -9.0941,   1
  3944,'MNYPG3      ', 380.0000,1,     0.000,     6.000,   4,   1,1.04110, -20.5619,   1
  3954,'MNYPG2      ', 380.0000,1,     0.000,     6.000,   4,   1,0.99230,  -5.6659,   1
  3961,'MARINA      ', 110.0000,1,     0.000,     0.000,   3,   1,0.99556, -13.5860,   1
  3981,'MUNGRET     ', 110.0000,1,     0.000,     0.000,   7,   1,0.99953, -12.3676,   5
  3991,'MUNGRET     ', 110.0000,1,     0.000,     0.000,   7,   1,0.99954, -12.3672,   5
  4001,'MULLINGA    ', 110.0000,1,     0.000,     0.000,   9,   1,0.99261, -19.7992,   1
  4021,'MALLOW      ', 110.0000,1,     0.000,     0.000,   3,   1,0.99492, -13.7002,   1
  4041,'MOY         ', 110.0000,1,     0.000,     0.000,   9,   1,1.00378, -14.6103,   1
  4061,'MULLAGHA    ', 110.0000,1,     0.000,     0.000,  10,   1,1.01851, -20.8849,   2
  4071,'MEENTYCA    ', 110.0000,1,     0.000,     0.000,   9,   1,1.00885, -11.6151,   4
  4081,'MONREAD     ', 110.0000,1,     0.000,     0.000,   8,   1,0.99324, -21.1341,   1
  4091,'MULREAVY    ', 110.0000,1,     0.000,     0.000,   9,   1,1.00000, -12.5213,   1
  4101,'NEWBURY     ', 110.0000,1,     0.000,     0.000,   1,   1,1.01790, -23.6069,   2
  4111,'BANCROFT    ', 110.0000,1,     0.000,     0.000,   1,   1,0.99649, -22.1270,   2
  4201,'NEWBRIDG    ', 110.0000,1,     0.000,     0.000,   8,   1,0.99516, -20.3214,   1
  4211,'NORTH QU    ', 110.0000,1,     0.000,     0.000,   1,   1,1.00380, -21.7607,   2
  4221,'NAVAN       ', 110.0000,1,     0.000,     0.000,  10,   1,1.00235, -21.5353,   1
  4242,'NORTH WA    ', 220.0000,1,     0.000,     0.000,   2,   1,1.00579, -21.5078,   1
  4251,'NORE        ', 110.0000,1,     0.000,     0.000,   6,   1,1.00532, -19.9084,   1
  4261,'NENAGH      ', 110.0000,1,     0.000,     0.000,   7,   1,0.99655, -13.0554,   2
  4281,'NANGOR      ', 110.0000,1,     0.000,     0.000,   1,   1,0.99127, -24.1096,   2
  4341,'OLDCOURT    ', 110.0000,1,     0.000,     0.000,   3,   1,0.99728, -13.4527,   5
  4351,'OLDCOURT    ', 110.0000,1,     0.000,     0.000,   3,   1,0.99735, -13.4477,   5
  4361,'OUGHTRAG    ', 110.0000,1,     0.000,     0.000,   7,   1,1.00238, -10.3228,   2
  4371,'GLENREE     ', 110.0000,1,     0.000,     0.000,   9,   1,1.00000, -14.1500,   1
  4382,'OLDSTREE    ', 220.0000,1,     0.000,     0.000,   4,   1,1.02301, -18.4517,   1
  4384,'OLDSTREE    ', 380.0000,1,     0.000,     0.000,   4,   1,1.03217, -20.2247,   1
  4401,'POPPINTR    ', 110.0000,1,     0.000,     0.000,   1,   1,1.01798, -23.5220,   2
  4441,'POLLAPHU    ', 110.0000,1,     0.000,     0.000,   6,   1,1.01342, -20.1079,   1
  4461,'POOLBEG     ', 110.0000,1,     0.000,     0.000,   2,   1,1.00387, -21.7549,   2
  4462,'POOLBEG     ', 220.0000,1,     0.000,     0.000,   2,   1,1.00539, -21.4880,   1
  4471,'POOLBEG     ', 110.0000,1,     0.000,     0.000,   2,   1,1.00387, -21.7549,   2
  4472,'POOLBEG     ', 220.0000,1,     0.000,     0.000,   2,   1,1.00424, -21.7475,   1
  4481,'PORTLAOI    ', 110.0000,1,     0.000,     0.000,   8,   1,1.00153, -18.9462,   1
  4491,'PELLETST    ', 110.0000,1,     0.000,     0.000,   1,   1,1.00891, -22.5899,   2
  4501,'PLATIN      ', 110.0000,1,     0.000,     0.000,  10,   1,1.00072, -21.9067,   1
  4511,'POTTERY     ', 110.0000,1,     0.000,     0.000,   1,   1,0.99747, -22.1062,   2
  4522,'PROSPECT    ', 220.0000,1,     0.000,     0.000,   7,   1,1.01418,  -9.5770,   1
  4621,'RYEBROOK    ', 110.0000,1,     0.000,     0.000,   2,   1,0.99054, -22.8234,   1
  4651,'RINGSEND    ', 110.0000,1,     0.000,     0.000,   1,   1,1.00381, -21.7548,   2
  4681,'RATHKEAL    ', 110.0000,1,     0.000,     0.000,   7,   1,1.00132, -11.2992,   1
  4701,'RICHMOND    ', 110.0000,1,     0.000,     0.000,   9,   1,0.99825, -15.6351,   2
  4711,'RICHMOND    ', 110.0000,1,     0.000,     0.000,   9,   1,0.99825, -15.6351,   1
  4721,'RAFFEEN     ', 110.0000,1,     0.000,     0.000,   3,   1,0.99749, -13.3576,   1
  4722,'RAFFEEN     ', 220.0000,1,     0.000,     0.000,   3,   1,0.99914, -12.4310,   1
  4731,'RAFFEENB    ', 110.0000,1,     0.000,     0.000,   3,   1,0.99478, -13.3259,   1
  4741,'RINAWADE    ', 110.0000,1,     0.000,     0.000,   2,   1,0.99797, -21.9465,   1
  4761,'RINGASKI    ', 110.0000,1,     0.000,     0.000,   3,   1,0.99473, -13.3299,   2
  4781,'RATRUSSA    ', 110.0000,1,     0.000,     0.000,  10,   1,1.00105, -18.5955,   1
  4901,'SHELTON     ', 110.0000,1,     0.000,     0.000,   6,   1,1.00278, -20.1957,   5
  4911,'SUIR        ', 110.0000,1,     0.000,     0.000,   5,   1,0.99701, -14.7854,   4
  4941,'SHANNONB    ', 110.0000,1,     0.000,     0.000,   5,   1,1.00000, -14.9516,   1
  4942,'SHANNONB    ', 220.0000,1,     0.000,     0.000,   5,   1,1.00264, -15.9468,   1
  4943,'SHANNONB    ', 220.0000,1,     0.000,     0.000,   5,   1,1.00264, -15.9468,   1
  4951,'SALTHILL    ', 110.0000,1,     0.000,     0.000,   9,   1,1.01368, -15.1277,   2
  4961,'SHANKILL    ', 110.0000,1,     0.000,     0.000,  10,   1,0.99837, -19.0163,   1
  4981,'SLIGO       ', 110.0000,1,     0.000,     0.000,   9,   1,1.00190, -15.3151,   1
  4991,'SORNE HI    ', 110.0000,1,     0.000,     0.000,   9,   1,1.00403, -10.0129,   2
  5001,'SOMERSET    ', 110.0000,1,     0.000,     0.000,   9,   1,1.00274, -15.1178,   2
  5022,'SHELLYBA    ', 220.0000,1,     0.000,     0.000,   2,   1,1.00543, -21.4865,   1
  5031,'STEPHENS    ', 110.0000,1,     0.000,     0.000,   1,   1,1.01744, -23.8645,   2
  5041,'SRANANAG    ', 110.0000,1,     0.000,     0.000,   9,   1,1.00229, -15.2377,   1
  5042,'SRANANAG    ', 220.0000,1,     0.000,     0.000,   9,   1,1.00978, -16.1357,   1
  5051,'SEAL ROC    ', 110.0000,1,     0.000,     0.000,   7,   1,1.00023, -10.1942,   4
  5061,'STRATFOR    ', 110.0000,1,     0.000,     0.000,   6,   1,1.01296, -20.1198,   2
  5071,'SEAL ROC    ', 110.0000,1,     0.000,     0.000,   7,   1,1.00023, -10.1942,   4
  5091,'SINGLAND    ', 110.0000,1,     0.000,     0.000,   7,   1,1.00326, -12.9698,   1
  5122,'SHELLYBA    ', 220.0000,1,     0.000,     0.000,   2,   1,1.00008, -20.9279,   1
  5131,'TANEY       ', 110.0000,1,     0.000,     0.000,   1,   1,0.99769, -22.1090,   2
  5141,'TARBERT     ', 110.0000,1,     0.000,     0.000,   7,   1,1.00916,  -9.8392,   1
  5142,'TARBERT     ', 220.0000,1,     0.000,     0.000,   7,   1,1.01306,  -9.4173,   1
  5172,'TYNAGH      ', 220.0000,1,     0.000,     0.000,   4,   1,1.02080, -17.5843,   1
  5181,'TRABEG      ', 110.0000,1,     0.000,     0.000,   3,   1,0.99553, -13.5834,   1
  5191,'TIEVEBRA    ', 110.0000,1,     0.000,     0.000,   9,   1,0.99866, -13.2366,   1
  5202,'TURLOUGH    ', 220.0000,1,     0.000,     0.000,   2,   1,1.00039, -23.5650,   1
  5221,'TULLABRA    ', 110.0000,1,     0.000,     0.000,   4,   1,1.01305, -10.7189,   2
  5222,'SHELLYBA    ', 220.0000,1,     0.000,     0.000,   2,   1,1.00008, -20.9279,   1
  5231,'TRINITY     ', 110.0000,1,     0.000,     0.000,   1,   1,1.00345, -21.8207,   2
  5241,'TAWNAGHM    ', 110.0000,1,     0.000,     0.000,   9,   1,1.00382, -14.6113,   2
  5251,'TAWN_B      ', 110.0000,1,     0.000,     0.000,   9,   1,1.00382, -14.6113,   2
  5261,'TRIEN       ', 110.0000,1,     0.000,     0.000,   7,   1,1.00609,  -9.7111,   1
  5271,'CAUTEEN     ', 110.0000,1,     0.000,     0.000,   5,   1,1.00015, -13.0836,   1
  5281,'TRALEE      ', 110.0000,1,     0.000,     0.000,   7,   1,1.00581,  -9.7237,   1
  5301,'THURLES     ', 110.0000,1,     0.000,     0.000,   5,   1,0.99866, -14.0967,   1
  5321,'THORNSBE    ', 110.0000,1,     0.000,     0.000,   8,   1,0.99717, -19.2803,   2
  5341,'TONROE      ', 110.0000,1,     0.000,     0.000,   9,   1,0.99271, -16.6659,   2
  5361,'TRILLICK    ', 110.0000,1,     0.000,     0.000,   9,   1,1.00422, -10.2012,   2
  5381,'TIPPERAR    ', 110.0000,1,     0.000,     0.000,   5,   1,0.99789, -13.8716,   1
  5441,'WATERFOR    ', 110.0000,1,     0.000,     0.000,   5,   1,0.99831, -17.9415,   1
  5462,'WOODLAND    ', 220.0000,1,     0.000,     0.000,   2,   1,1.00387, -21.4133,   1
  5464,'WOODLAND    ', 380.0000,1,     0.000,     0.000,   2,   1,1.01273, -21.6204,   1
  5481,'WHITEGAT    ', 110.0000,1,     0.000,     0.000,   3,   1,0.99849, -13.3593,   1
  5501,'WEXFORD     ', 110.0000,1,     0.000,     0.000,   6,   1,0.99922, -18.3191,   1
  5521,'WOLFE TO    ', 110.0000,1,     0.000,     0.000,   1,   1,1.00880, -22.6191,   2
 10204,'ARDNACRU    ',  38.0000,1,     0.000,     0.000,   4,   1,1.04355, -13.8984,   2
 10205,'ARDNACRU    ',  38.0000,1,     0.000,     0.000,   4,   1,1.02180, -14.3626,   2
 10210,'ARDNACRU    ', 110.0000,1,     0.000,     0.000,   4,   1,1.00194, -13.0147,   1
 10212,'KNOCKAST    ',  20.0000,1,     0.000,     0.000,   4,   1,1.01846, -13.4061,   1
 10213,'MIENVEE     ',  20.0000,1,     0.000,     0.000,   4,   1,1.01823, -14.6358,   1
 10261,'ARDNA_CA    ', 110.0000,1,     0.000,     0.000,   4,   1,1.00194, -13.0147,   1
 10271,'ARDNG1      ',  10.5000,2,     0.000,     0.000,   4,   1,1.00194, -13.0147,   3
 10272,'ARDNG2      ',  10.5000,2,     0.000,     0.000,   4,   1,1.00194, -13.0147,   3
 10273,'ARDNG3      ',  10.5000,2,     0.000,     0.000,   4,   1,1.00194, -13.0147,   3
 10274,'ARDNG4      ',  10.5000,2,     0.000,     0.000,   4,   1,1.00194, -13.0147,   3
 10275,'KNOCKAST    ',   0.6900,2,     0.000,     0.000,   4,   1,1.01887, -13.5501,   1
 10276,'MIENVEE     ',   0.6900,2,     0.000,     0.000,   4,   1,1.01860, -15.0244,   1
 10401,'AGHADA      ',  10.0000,1,     0.000,     0.000,   3,   1,0.99905, -13.2976,   3
 10421,'AGHADA      ',  10.5000,1,     0.000,     0.000,   3,   1,0.99926, -13.2206,   1
 10470,'AGH_CCGT    ',  21.0000,2,     0.000,     0.000,   3,   1,0.99926, -13.6405,   1