0,   100.00          / PSS/E-30.3    MON, NOV 18 2013  18:12
AITYTFS Winter Peak 2016/17

    10,'F_M         ',  38.0000,1,     0.000,     0.000,   2,   1,1.06439, -14.4753,   2
    11,'FMN LOOP    ',  38.0000,1,     0.000,     0.000,   2,   1,1.07270, -12.4840,   2
    12,'BEDFORD     ',  38.0000,1,     0.000,     0.000,   1,   1,1.05806, -14.1006,   2
    13,'M_R         ',  38.0000,1,     0.000,     0.000,   1,   1,1.06420, -13.4498,   2
    14,'F_I         ',  38.0000,1,     0.000,     0.000,   2,   1,1.05765, -13.6958,   2
    15,'I_M         ',  38.0000,1,     0.000,     0.000,   2,   1,1.06671, -14.0822,   2
  1021,'ARDNACRU    ', 110.0000,1,     0.000,     0.000,   4,   1,1.05000,  -3.9288,   1
  1041,'AGHADA      ', 110.0000,1,     0.000,     0.000,   3,   1,1.04772,   0.3185,   1
  1042,'AGHADA      ', 220.0000,1,     0.000,     0.000,   3,   1,1.05000,   3.4722,   1
  1052,'AGHADA_B    ', 220.0000,1,     0.000,     0.000,   3,   1,1.05052,   3.3162,   1
  1061,'ARIGNA      ', 110.0000,1,     0.000,     0.000,   9,   1,1.04935, -10.7799,   2
  1062,'AGH_AT14    ', 220.0000,1,     0.000,     0.000,   3,   1,1.05000,   3.4722,   1
  1071,'AGANNYGA    ', 110.0000,1,     0.000,     0.000,   4,   1,1.06213,  -3.8438,   1
  1072,'AGHT2102    ', 220.0000,1,     0.000,     0.000,   3,   1,1.04995,   3.4571,   1
  1081,'AHANE       ', 110.0000,1,     0.000,     0.000,   7,   1,1.05125,  -3.7516,   2
  1091,'ADAMSTOW    ', 110.0000,1,     0.000,     0.000,   1,   1,1.03633, -12.4229,   2
  1101,'ANNER       ', 110.0000,1,     0.000,     0.000,   5,   1,1.06047,  -6.9653,   5
  1121,'ARKLOW      ', 110.0000,1,     0.000,     0.000,   6,   1,1.06851,  -6.5337,   1
  1122,'ARKLOW      ', 220.0000,1,     0.000,     0.000,   6,   1,1.06758,  -5.5319,   1
  1131,'ATHEA       ', 110.0000,1,     0.000,     0.000,   7,   1,1.04980,   2.8602,   4
  1141,'ATHLONE     ', 110.0000,1,     0.000,     0.000,   9,   1,1.06495,  -7.7301,   1
  1151,'ATHEA-2     ', 110.0000,1,     0.000,     0.000,   7,   1,1.04980,   2.8602,   1
  1161,'AUGHINIS    ', 110.0000,1,     0.000,     0.000,   7,   1,1.05000,   0.2714,   1
  1181,'ARVA        ', 110.0000,1,     0.000,     0.000,  10,   1,1.04376, -13.8987,   1
  1201,'ARTANE      ', 110.0000,1,     0.000,     0.000,   1,   1,1.06424,  -9.3312,   2
  1211,'BALLYVOU    ', 110.0000,1,     0.000,     0.000,   3,   1,1.04946,   3.4855,   1
  1212,'BALLYVOU    ', 220.0000,1,     0.000,     0.000,   3,   1,1.05660,   2.5718,   1
  1221,'ATHY        ', 110.0000,1,     0.000,     0.000,   8,   1,1.04819,  -8.4115,   1
  1231,'BALLYWAT    ', 110.0000,1,     0.000,     0.000,   6,   1,1.06881,  -5.6234,   4
  1251,'BOOLTIAG    ', 110.0000,1,     0.000,     0.000,   4,   1,1.05567,  -3.5475,   2
  1271,'BALTRASN    ', 110.0000,1,     0.000,     0.000,  10,   1,1.04659, -11.3836,   1
  1281,'BALLYLIC    ', 110.0000,1,     0.000,     0.000,   3,   1,1.04984,  -1.7011,   2
  1301,'BALLYBEG    ', 110.0000,1,     0.000,     0.000,   6,   1,1.06357,  -7.4469,   1
  1311,'CORDAL      ', 110.0000,1,     0.000,     0.000,   3,   1,1.05231,   4.2333,   1
  1321,'BLAKE       ', 110.0000,1,     0.000,     0.000,   8,   1,1.04885,  -9.6571,   2
  1341,'BINBANE     ', 110.0000,1,     0.000,     0.000,   9,   1,1.03740, -13.0814,   2
  1351,'BARODA      ', 110.0000,1,     0.000,     0.000,   8,   1,1.04765, -10.1267,   1
  1361,'BALLYDIN    ', 110.0000,1,     0.000,     0.000,   5,   1,1.05708,  -6.5911,   1
  1381,'BARNAHEL    ', 110.0000,1,     0.000,     0.000,   3,   1,1.04360,  -0.2851,   1
  1391,'BARNAHEL    ', 110.0000,1,     0.000,     0.000,   3,   1,1.04284,  -0.5416,   1
  1401,'BELLACOR    ', 110.0000,1,     0.000,     0.000,   9,   1,1.04808, -12.0988,   1
  1421,'BLACKROC    ', 110.0000,1,     0.000,     0.000,   1,   1,1.05592, -10.3096,   2
  1441,'BANDON      ', 110.0000,1,     0.000,     0.000,   3,   1,1.03640,  -2.2034,   1
  1451,'CLOGHRAN    ', 110.0000,1,     0.000,     0.000,   1,   1,1.05417,  -9.8136,   1
  1461,'BARRYMOR    ', 110.0000,1,     0.000,     0.000,   5,   1,1.04776,  -2.8145,   2
  1481,'BUTLERST    ', 110.0000,1,     0.000,     0.000,   5,   1,1.05922,  -5.6349,   1
  1492,'BALLAKEL    ', 220.0000,1,     0.000,     0.000,  10,   1,1.06412, -11.2431,   1
  1501,'BRINNY      ', 110.0000,1,     0.000,     0.000,   3,   1,1.03619,  -2.2161,   5
  1511,'KNOCKNAG    ', 110.0000,1,     0.000,     0.000,   7,   1,1.05000,   3.1574,   1
  1541,'BANOGE      ', 110.0000,1,     0.000,     0.000,   6,   1,1.06447,  -6.4526,   1
  1551,'BOGGERAG    ', 110.0000,1,     0.000,     0.000,   3,   1,1.05000,   4.8196,   1
  1571,'ARDNAGAP    ', 110.0000,1,     0.000,     0.000,   9,   1,1.01804, -14.4811,   2
  1581,'CABRA       ', 110.0000,1,     0.000,     0.000,   1,   1,1.06344,  -9.3892,   2
  1601,'CLASHAVO    ', 110.0000,1,     0.000,     0.000,   3,   1,1.05382,  -0.9812,   1
  1602,'CLASHAVO    ', 220.0000,1,     0.000,     0.000,   3,   1,1.05399,   2.1950,   1
  1611,'CLONKEEN    ', 110.0000,1,     0.000,     0.000,   7,   1,1.04600,  -2.2495,   1
  1621,'COOLROE     ', 110.0000,1,     0.000,     0.000,   3,   1,1.04810,  -1.3869,   1
  1631,'CORDERRY    ', 110.0000,1,     0.000,     0.000,   9,   1,1.05268, -10.6847,   1
  1641,'CASHLA      ', 110.0000,1,     0.000,     0.000,   9,   1,1.07281,  -6.4135,   1
  1642,'CASHLA      ', 220.0000,1,     0.000,     0.000,   9,   1,1.06929,  -4.2753,   1
  1651,'CLAHANE     ', 110.0000,1,     0.000,     0.000,   7,   1,1.05179,  -2.4582,   1
  1661,'CASTLEBA    ', 110.0000,1,     0.000,     0.000,   9,   1,1.05109, -11.6213,   1
  1681,'CARRIGAD    ', 110.0000,1,     0.000,     0.000,   3,   1,1.05612,  -1.2530,   1
  1691,'CENTRAL     ', 110.0000,1,     0.000,     0.000,   1,   1,1.05748, -10.1711,   1
  1701,'CATH_FAL    ', 110.0000,1,     0.000,     0.000,   9,   1,1.05000, -12.0150,   1
  1711,'CROMCAST    ', 110.0000,1,     0.000,     0.000,   1,   1,1.05840, -10.8534,   1
  1721,'CAHIR       ', 110.0000,1,     0.000,     0.000,   5,   1,1.06925,  -6.2146,   1
  1731,'CROMCAST    ', 110.0000,1,     0.000,     0.000,   1,   1,1.05840, -10.8534,   1
  1741,'CARRICKM    ', 110.0000,1,     0.000,     0.000,   2,   1,1.05759, -10.1297,   1
  1742,'CARRICKM    ', 220.0000,1,     0.000,     0.000,   2,   1,1.06829,  -6.7983,   1
  1761,'CLIFF       ', 110.0000,1,     0.000,     0.000,   9,   1,1.05023, -11.8099,   1
  1781,'CASTLEFA    ', 110.0000,1,     0.000,     0.000,   7,   1,1.04960,   0.2505,   5
  1791,'BRACKLON    ', 110.0000,1,     0.000,     0.000,   8,   1,1.04646,  -9.5218,   1
  1801,'COOKSTOW    ', 110.0000,1,     0.000,     0.000,   1,   1,1.06015,  -8.0919,   2
  1821,'CLOON       ', 110.0000,1,     0.000,     0.000,   9,   1,1.05935,  -8.4976,   1
  1831,'SCREEB      ', 110.0000,1,     0.000,     0.000,   9,   1,1.05251,  -7.7541,   2
  1841,'CRANE       ', 110.0000,1,     0.000,     0.000,   6,   1,1.06746,  -5.8164,   1
  1851,'CHERRYWO    ', 110.0000,1,     0.000,     0.000,   2,   1,1.05470, -10.2819,   1
  1861,'CARICKON    ', 110.0000,1,     0.000,     0.000,   9,   1,1.04906, -11.0627,   1
  1871,'COLLEGE     ', 110.0000,1,     0.000,     0.000,   2,   1,1.05651,  -9.6265,   1
  1881,'CHARLEVI    ', 110.0000,1,     0.000,     0.000,   3,   1,1.03071,  -4.1932,   1
  1891,'CAULSTOW    ', 110.0000,1,     0.000,     0.000,  10,   1,1.03897, -12.8556,   1
  1901,'CARLOW      ', 110.0000,1,     0.000,     0.000,   6,   1,1.05739,  -7.4072,   1
  1911,'CUILLEEN    ', 110.0000,1,     0.000,     0.000,   9,   1,1.06499,  -7.7311,   1
  1921,'COW CROS    ', 110.0000,1,     0.000,     0.000,   3,   1,1.04307,  -0.3935,   1
  1931,'CUNGHILL    ', 110.0000,1,     0.000,     0.000,   9,   1,1.05130, -11.4893,   4
  1941,'CUSHALIN    ', 110.0000,1,     0.000,     0.000,   8,   1,1.07500,  -6.7035,   1
  1951,'CARROWBE    ', 110.0000,1,     0.000,     0.000,   9,   1,1.04009, -12.4967,   1
  1961,'CASTLEVI    ', 110.0000,1,     0.000,     0.000,   3,   1,1.04312,  -0.7483,   1
  1971,'COOMAGEA    ', 110.0000,1,     0.000,     0.000,   7,   1,1.05000,   4.8885,   4
  1981,'CORRACLA    ', 110.0000,1,     0.000,     0.000,   9,   1,1.04570, -14.3072,   1
  1991,'CASTLEDO    ', 110.0000,1,     0.000,     0.000,   6,   1,1.06877,  -4.9688,   1
  2001,'CULLENAG    ', 110.0000,1,     0.000,     0.000,   5,   1,1.06245,  -5.0535,   1
  2002,'CULLENAG    ', 220.0000,1,     0.000,     0.000,   5,   1,1.06872,  -1.9656,   1
  2011,'KNOCKNAG    ', 110.0000,1,     0.000,     0.000,   3,   1,1.05618,  -1.2594,   1
  2021,'CITY WES    ', 110.0000,1,     0.000,     0.000,   1,   1,1.03449, -12.6450,   2
  2041,'CORDUFF     ', 110.0000,1,     0.000,     0.000,   2,   1,1.05703,  -9.5477,   1
  2042,'CORDUFF     ', 220.0000,1,     0.000,     0.000,   2,   1,1.07500,  -5.7613,   1
  2051,'BLACKPOO    ', 110.0000,1,     0.000,     0.000,   3,   1,1.03943,  -1.5889,   1
  2052,'CORDUFFB    ', 220.0000,1,     0.000,     0.000,   2,   1,1.07500,  -5.7613,   1
  2081,'DUNKETTL    ', 110.0000,4,     0.000,     0.000,   3,   1,1.00000,   0.0000,   5
  2090,'WEST GAL    ', 110.0000,1,     0.000,     0.000,   9,   1,1.05512,  -5.4272,   1
  2091,'WEST GAL    ', 110.0000,1,     0.000,     0.000,   9,   1,1.05976,  -7.2244,   1
  2101,'DUNDALK     ', 110.0000,1,     0.000,     0.000,  10,   1,1.04773, -14.0772,   2
  2111,'UGOOL       ', 110.0000,1,     0.000,     0.000,   9,   1,1.05000,  -4.7424,   1
  2121,'DRUMLINE    ', 110.0000,1,     0.000,     0.000,   4,   1,1.04874,  -4.9786,   1
  2131,'DROMADA     ', 110.0000,1,     0.000,     0.000,   3,   1,1.05000,   2.9492,   1
  2141,'DUNGARVA    ', 110.0000,1,     0.000,     0.000,   5,   1,1.04345,  -4.7949,   1
  2161,'DOON        ', 110.0000,1,     0.000,     0.000,   5,   1,1.06128,  -6.9147,   1
  2181,'DRYBRIDG    ', 110.0000,1,     0.000,     0.000,  10,   1,1.03832, -13.0750,   1
  2202,'DUNSTOWN    ', 220.0000,1,     0.000,     0.000,   2,   1,1.07030,  -5.4737,   1
  2204,'DUNSTOWN    ', 380.0000,1,     0.000,     0.000,   2,   1,1.04245,  -3.5308,   1
  2221,'DUNMANWA    ', 110.0000,1,     0.000,     0.000,   3,   1,1.04719,  -1.8079,   1
  2231,'DERRYBRI    ', 110.0000,1,     0.000,     0.000,   4,   1,1.06274,  -3.4343,   2
  2241,'DALLOW      ', 110.0000,1,     0.000,     0.000,   5,   1,1.06289,  -6.1759,   2
  2251,'DARDISTO    ', 110.0000,1,     0.000,     0.000,   1,   1,1.05912, -10.8180,   2
  2261,'DERRYIRO    ', 110.0000,1,     0.000,     0.000,   8,   1,1.04362,  -9.6184,   1
  2281,'DALTON      ', 110.0000,1,     0.000,     0.000,   9,   1,1.05733, -10.6908,   1
  2301,'DUNFIRTH    ', 110.0000,1,     0.000,     0.000,   8,   1,1.04654,  -9.9320,   2
  2321,'DRUMKEEN    ', 110.0000,1,     0.000,     0.000,   9,   1,1.04489, -13.8467,   1
  2361,'ENNIS       ', 110.0000,1,     0.000,     0.000,   4,   1,1.04917,  -4.9436,   1
  2391,'KILL HIL    ', 110.0000,1,     0.000,     0.000,   5,   1,1.06473,  -6.0307,   1
  2401,'MOUNTLUC    ', 110.0000,1,     0.000,     0.000,   8,   1,1.05512,  -7.1356,   1
  2411,'KNOCKMUL    ', 110.0000,1,     0.000,     0.000,   6,   1,1.06209,  -5.6199,   1
  2481,'FASS EAS    ', 110.0000,1,     0.000,     0.000,   2,   1,1.05316,  -8.3257,   2
  2491,'FASS WES    ', 110.0000,1,     0.000,     0.000,   2,   1,1.05349,  -8.3104,   2
  2521,'FLAGFORD    ', 110.0000,1,     0.000,     0.000,   9,   1,1.05041, -10.8884,   1
  2522,'FLAGFORD    ', 220.0000,1,     0.000,     0.000,   9,   1,1.05954,  -9.2158,   1
  2541,'FRN ST A    ', 110.0000,1,     0.000,     0.000,   1,   1,1.06595,  -9.8447,   2
  2551,'FRN ST B    ', 110.0000,1,     0.000,     0.000,   1,   1,1.06130, -10.1144,   2
  2561,'FIN_URBA    ', 110.0000,1,     0.000,     0.000,   2,   1,1.06595,  -9.1567,   2
  2562,'FINGLAS     ', 220.0000,1,     0.000,     0.000,   2,   1,1.07500,  -5.9785,   1
  2563,'FINGLAS2    ', 220.0000,1,     0.000,     0.000,   2,   1,1.07500,  -5.9785,   1
  2571,'FIN_RURA    ', 110.0000,1,     0.000,     0.000,   2,   1,1.06009, -10.6127,   2
  2581,'KILDONAN    ', 110.0000,1,     0.000,     0.000,   2,   1,1.05568,  -9.7138,   2
  2671,'GARVAGH     ', 110.0000,1,     0.000,     0.000,   9,   1,1.05263, -10.4822,   4
  2681,'GILRA       ', 110.0000,1,     0.000,     0.000,   9,   1,1.05241, -11.1771,   2
  2701,'GLASMORE    ', 110.0000,1,     0.000,     0.000,   1,   1,1.03725, -11.8735,   2
  2721,'GRIFFINR    ', 110.0000,1,     0.000,     0.000,   2,   1,1.05131,  -9.6689,   2
  2731,'GLANLEE     ', 110.0000,1,     0.000,     0.000,   7,   1,1.04986,   4.9092,   4
  2741,'GREAT IS    ', 110.0000,1,     0.000,     0.000,   6,   1,1.06662,  -5.2685,   1
  2742,'GREAT IS    ', 220.0000,1,     0.000,     0.000,   6,   1,1.07500,  -1.8858,   1
  2761,'GRANGE      ', 110.0000,1,     0.000,     0.000,   1,   1,1.05783, -10.8856,   2
  2771,'GARROW      ', 110.0000,1,     0.000,     0.000,   7,   1,1.04940,   4.1966,   7
  2780,'GALWAY      ', 110.0000,1,     0.000,     0.000,   9,   1,1.06260,  -6.7392,   1
  2781,'GALWAY      ', 110.0000,1,     0.000,     0.000,   9,   1,1.06260,  -6.7392,   1
  2801,'GOLAGH      ', 110.0000,1,     0.000,     0.000,   9,   1,1.04742, -12.4879,   4
  2821,'GORTAWEE    ', 110.0000,1,     0.000,     0.000,   9,   1,1.04459, -14.6360,   1
  2841,'GORMAN      ', 110.0000,1,     0.000,     0.000,  10,   1,1.03779, -13.3128,   1
  2842,'GORMAN      ', 220.0000,1,     0.000,     0.000,  10,   1,1.05747, -10.3195,   1
  2852,'GLANAGOW    ', 220.0000,1,     0.000,     0.000,   3,   1,1.05049,   3.4085,   1
  2861,'GRANGE C    ', 110.0000,1,     0.000,     0.000,   1,   1,1.03654, -12.4089,   2
  2870,'CLOGHER     ', 110.0000,1,     0.000,     0.000,   9,   1,1.04887, -12.4306,   1
  2871,'CLOGHER     ', 110.0000,1,     0.000,     0.000,   9,   1,1.04887, -12.4306,   1
  2881,'GLENLARA    ', 110.0000,1,     0.000,     0.000,   3,   1,1.02249,  -4.5784,   2
  2941,'HAROLDS     ', 110.0000,1,     0.000,     0.000,   1,   1,1.06682,  -9.8276,   2
  2951,'HEUSTON     ', 110.0000,1,     0.000,     0.000,   1,   1,1.06156, -10.0966,   2
  2962,'HUNTSTOW    ', 220.0000,1,     0.000,     0.000,   2,   1,1.07537,  -5.9103,   4
  2972,'HUNTSTOW    ', 220.0000,1,     0.000,     0.000,   2,   1,1.07575,  -5.4685,   4
  2981,'HARTNETT    ', 110.0000,1,     0.000,     0.000,   3,   1,1.05332,  -1.2842,   2
  3061,'INISCARR    ', 110.0000,1,     0.000,     0.000,   3,   1,1.05000,  -1.2991,   1
  3081,'INCH_CIT    ', 110.0000,1,     0.000,     0.000,   2,   1,1.06201, -10.0532,   2
  3082,'INCHICOR    ', 220.0000,1,     0.000,     0.000,   2,   1,1.07216,  -7.6467,   1
  3091,'INCH_COU    ', 110.0000,1,     0.000,     0.000,   2,   1,1.04151, -12.1930,   2
  3101,'IKERRIN     ', 110.0000,1,     0.000,     0.000,   5,   1,1.05699,  -6.3998,   2
  3122,'IRISHTOW    ', 220.0000,1,     0.000,     0.000,   2,   1,1.07500,  -6.7010,   1
  3190,'NORTH KE    ', 110.0000,1,     0.000,     0.000,   7,   1,1.05162,  -2.3444,   1
  3191,'NORTH KE    ', 110.0000,1,     0.000,     0.000,   7,   1,1.05222,   2.2247,   1
  3192,'NORTH KE    ', 220.0000,1,     0.000,     0.000,   7,   1,1.06663,   0.7782,   1
  3200,'KNOCKRAH    ', 110.0000,1,     0.000,     0.000,   3,   1,1.04697,  -0.6587,   1
  3201,'KNOCKRAH    ', 110.0000,1,     0.000,     0.000,   3,   1,1.04697,  -0.6587,   1
  3202,'KNOCKRAH    ', 220.0000,1,     0.000,     0.000,   3,   1,1.04965,   1.9604,   1
  3203,'KNOCKRAH    ', 220.0000,1,     0.000,     0.000,   3,   1,1.05262,   1.3367,   1
  3209,'KNOCKRAH    ', 110.0000,1,     0.000,     0.000,   3,   1,1.04697,  -0.6587,   1
  3211,'KNOCKAVA    ', 110.0000,1,     0.000,     0.000,   4,   1,1.06226,  -3.5006,   1
  3221,'KILBARRY    ', 110.0000,1,     0.000,     0.000,   3,   1,1.03947,  -1.5863,   1
  3241,'KILTEEL     ', 110.0000,1,     0.000,     0.000,   8,   1,1.05250, -10.6485,   2
  3251,'REAMORE     ', 110.0000,1,     0.000,     0.000,   7,   1,1.05148,  -2.5668,   1
  3261,'KILKENNY    ', 110.0000,1,     0.000,     0.000,   6,   1,1.05105,  -8.7773,   1
  3281,'KILLONAN    ', 110.0000,1,     0.000,     0.000,   7,   1,1.05160,  -3.7164,   1
  3282,'KILLONAN    ', 220.0000,1,     0.000,     0.000,   7,   1,1.04974,  -2.0868,   1
  3301,'KNOCKERA    ', 110.0000,1,     0.000,     0.000,   7,   1,1.04035,  -3.1189,   1
  3321,'KNOCKUMB    ', 110.0000,1,     0.000,     0.000,  10,   1,1.02830, -13.9053,   5
  3330,'BALLYNAH    ', 110.0000,1,     0.000,     0.000,   3,   1,1.05122,   3.7731,   1
  3331,'BALLYNAH    ', 110.0000,1,     0.000,     0.000,   3,   1,1.05122,   3.7731,   1
  3332,'BALLYNAH    ', 220.0000,1,     0.000,     0.000,   3,   1,1.05890,   2.4884,   1
  3341,'KELLIS      ', 110.0000,1,     0.000,     0.000,   6,   1,1.06362,  -7.2551,   1
  3342,'KELLIS      ', 220.0000,1,     0.000,     0.000,   6,   1,1.05798,  -4.8372,   1
  3361,'KILTOY      ', 110.0000,1,     0.000,     0.000,   9,   1,1.03942, -14.6224,   5
  3381,'KINNEGAD    ', 110.0000,1,     0.000,     0.000,   8,   1,1.04196, -10.1438,   1
  3391,'KNOCKACU    ', 110.0000,1,     0.000,     0.000,   3,   1,1.05000,   4.8610,   1
  3401,'KILLOTER    ', 110.0000,1,     0.000,     0.000,   5,   1,1.06009,  -5.6006,   1
  3421,'KILMORE     ', 110.0000,1,     0.000,     0.000,   1,   1,1.05838, -10.8530,   2
  3431,'KILMAHUD    ', 110.0000,1,     0.000,     0.000,   1,   1,1.03626, -12.4265,   1
  3461,'KILPADDO    ', 110.0000,1,     0.000,     0.000,   7,   1,1.05668,  -1.9032,   1
  3462,'KILPADDO    ', 220.0000,1,     0.000,     0.000,   7,   1,1.07127,  -0.4313,   1
  3472,'KILPADDO    ', 220.0000,1,     0.000,     0.000,   7,   1,1.07127,  -0.4313,   1
  3501,'LANESBOR    ', 110.0000,1,     0.000,     0.000,   9,   1,1.05000,  -8.3624,   1
  3521,'LOUTHA      ', 110.0000,1,     0.000,     0.000,  10,   1,1.06549, -13.0722,   1
  3522,'LOUTH       ', 220.0000,1,     0.000,     0.000,  10,   1,1.06264, -11.2297,   1
  3541,'LIMERICK    ', 110.0000,1,     0.000,     0.000,   7,   1,1.04525,  -3.7923,   1
  3561,'LISDRUM     ', 110.0000,1,     0.000,     0.000,  10,   1,1.05088, -14.8799,   1
  3581,'LETTERKE    ', 110.0000,1,     0.000,     0.000,   9,   1,1.03941, -14.6221,   1
  3601,'LIBERTY     ', 110.0000,1,     0.000,     0.000,   3,   1,1.03827,  -1.5213,   2
  3611,'LIBERTY     ', 110.0000,1,     0.000,     0.000,   3,   1,1.03856,  -1.5131,   2
  3621,'LISHEEN     ', 110.0000,1,     0.000,     0.000,   5,   1,1.05000,  -6.1786,   5
  3641,'LODGEWOO    ', 110.0000,1,     0.000,     0.000,   6,   1,1.06915,  -5.0410,   1
  3642,'LODGEWOO    ', 220.0000,1,     0.000,     0.000,   6,   1,1.07050,  -4.1531,   1
  3651,'CRORY       ', 110.0000,1,     0.000,     0.000,   5,   1,1.06915,  -5.0410,   1
  3751,'MISERY H    ', 110.0000,1,     0.000,     0.000,   1,   1,1.06756,  -9.8020,   2
  3761,'MACETOWN    ', 110.0000,1,     0.000,     0.000,   1,   1,1.05474,  -9.7640,   1
  3781,'MCDERMOT    ', 110.0000,1,     0.000,     0.000,   1,   1,1.06360,  -9.3762,   2
  3801,'MIDLETON    ', 110.0000,1,     0.000,     0.000,   3,   1,1.04130,  -0.7839,   1
  3821,'MEATH HI    ', 110.0000,1,     0.000,     0.000,  10,   1,1.03965, -13.7397,   2
  3841,'MAYNOOTH    ', 110.0000,1,     0.000,     0.000,   2,   1,1.05377,  -9.5349,   1
  3842,'MAYNOOTH    ', 220.0000,1,     0.000,     0.000,   2,   1,1.06601,  -7.5316,   1
  3851,'MAYNOOTH    ', 110.0000,1,     0.000,     0.000,   2,   1,1.05684,  -9.0072,   1
  3852,'MAYNOOTH    ', 220.0000,1,     0.000,     0.000,   2,   1,1.07080,  -6.4649,   1
  3861,'MILLTOWN    ', 110.0000,1,     0.000,     0.000,   1,   1,1.06909,  -9.7453,   2
  3871,'MILLTOWN    ', 110.0000,1,     0.000,     0.000,   1,   1,1.05801, -10.2396,   2
  3881,'MACROOM     ', 110.0000,1,     0.000,     0.000,   3,   1,1.05439,  -1.2290,   1
  3901,'MONETEEN    ', 110.0000,1,     0.000,     0.000,   7,   1,1.04381,  -3.1343,   1
  3934,'MNYPG1      ', 380.0000,1,     0.000,     6.000,   4,   1,1.07500,   1.0394,   1
  3941,'MONEYPOI    ', 110.0000,1,     0.000,     0.000,   4,   1,1.06615,  -2.3744,   1
  3942,'MONEYPOI    ', 220.0000,1,     0.000,     0.000,   4,   1,1.07350,  -0.3945,   1
  3944,'MNYPG3      ', 380.0000,1,     0.000,     6.000,   4,   1,1.07500,   1.0394,   1
  3954,'MNYPG2      ', 380.0000,1,     0.000,     6.000,   4,   1,1.07500,   1.0394,   1
  3961,'MARINA      ', 110.0000,1,     0.000,     0.000,   3,   1,1.03866,  -1.5008,   1
  3981,'MUNGRET     ', 110.0000,1,     0.000,     0.000,   7,   1,1.04359,  -3.1474,   5
  3991,'MUNGRET     ', 110.0000,1,     0.000,     0.000,   7,   1,1.04359,  -3.1468,   5
  4001,'MULLINGA    ', 110.0000,1,     0.000,     0.000,   9,   1,1.04020, -10.7510,   1
  4021,'MALLOW      ', 110.0000,1,     0.000,     0.000,   3,   1,1.03031,  -3.5138,   1
  4041,'MOY         ', 110.0000,1,     0.000,     0.000,   9,   1,1.04952, -12.2817,   1
  4061,'MULLAGHA    ', 110.0000,1,     0.000,     0.000,  10,   1,1.04941, -13.9527,   2
  4071,'MEENTYCA    ', 110.0000,1,     0.000,     0.000,   9,   1,1.04650, -13.6049,   4
  4081,'MONREAD     ', 110.0000,1,     0.000,     0.000,   8,   1,1.04960, -10.5182,   1
  4091,'MULREAVY    ', 110.0000,1,     0.000,     0.000,   9,   1,1.05000, -12.2655,   1
  4101,'NEWBURY     ', 110.0000,1,     0.000,     0.000,   1,   1,1.05818, -10.8682,   2
  4111,'BANCROFT    ', 110.0000,1,     0.000,     0.000,   1,   1,1.05924,  -8.0641,   2
  4201,'NEWBRIDG    ', 110.0000,1,     0.000,     0.000,   8,   1,1.04885,  -9.6721,   1
  4211,'NORTH QU    ', 110.0000,1,     0.000,     0.000,   1,   1,1.06952,  -9.7186,   2
  4221,'NAVAN       ', 110.0000,1,     0.000,     0.000,  10,   1,1.03336, -13.6303,   1
  4242,'NORTH WA    ', 220.0000,1,     0.000,     0.000,   2,   1,1.07586,  -5.9960,   1
  4251,'NORE        ', 110.0000,1,     0.000,     0.000,   6,   1,1.05115,  -8.7800,   1
  4261,'NENAGH      ', 110.0000,1,     0.000,     0.000,   7,   1,1.02433,  -4.7983,   2
  4281,'NANGOR      ', 110.0000,1,     0.000,     0.000,   1,   1,1.03634, -12.4211,   2
  4341,'OLDCOURT    ', 110.0000,1,     0.000,     0.000,   3,   1,1.04300,  -0.3982,   5
  4351,'OLDCOURT    ', 110.0000,1,     0.000,     0.000,   3,   1,1.04307,  -0.3936,   5
  4361,'OUGHTRAG    ', 110.0000,1,     0.000,     0.000,   7,   1,1.03873,  -3.5605,   2
  4371,'GLENREE     ', 110.0000,1,     0.000,     0.000,   9,   1,1.05000, -11.6166,   1
  4382,'OLDSTREE    ', 220.0000,1,     0.000,     0.000,   4,   1,1.07153,  -0.9551,   1
  4384,'OLDSTREE    ', 380.0000,1,     0.000,     0.000,   4,   1,1.06228,  -0.2091,   1
  4401,'POPPINTR    ', 110.0000,1,     0.000,     0.000,   1,   1,1.05903, -10.7438,   2
  4441,'POLLAPHU    ', 110.0000,1,     0.000,     0.000,   6,   1,1.05000,  -5.1286,   1
  4461,'POOLBEG     ', 110.0000,1,     0.000,     0.000,   2,   1,1.06990,  -9.6426,   2
  4462,'POOLBEG     ', 220.0000,1,     0.000,     0.000,   2,   1,1.07550,  -5.9954,   1
  4471,'POOLBEG     ', 110.0000,1,     0.000,     0.000,   2,   1,1.06990,  -9.6445,   2
  4472,'POOLBEG     ', 220.0000,1,     0.000,     0.000,   2,   1,1.07373,  -7.7792,   1
  4481,'PORTLAOI    ', 110.0000,1,     0.000,     0.000,   8,   1,1.04805,  -8.7836,   1
  4491,'PELLETST    ', 110.0000,1,     0.000,     0.000,   1,   1,1.06410,  -9.3308,   2
  4501,'PLATIN      ', 110.0000,1,     0.000,     0.000,  10,   1,1.03853, -12.9395,   1
  4511,'POTTERY     ', 110.0000,1,     0.000,     0.000,   1,   1,1.05690, -10.2115,   2
  4522,'PROSPECT    ', 220.0000,1,     0.000,     0.000,   7,   1,1.07289,  -0.6224,   1
  4611,'RALAPPAN    ', 110.0000,1,     0.000,     0.000,   7,   1,1.05482,  -2.0670,   1
  4621,'RYEBROOK    ', 110.0000,1,     0.000,     0.000,   2,   1,1.04551, -10.0544,   1
  4651,'RINGSEND    ', 110.0000,1,     0.000,     0.000,   1,   1,1.06965,  -9.7053,   2
  4681,'RATHKEAL    ', 110.0000,1,     0.000,     0.000,   7,   1,1.04226,  -3.1546,   1
  4701,'RICHMOND    ', 110.0000,1,     0.000,     0.000,   9,   1,1.04430,  -8.6942,   2
  4711,'RICHMOND    ', 110.0000,1,     0.000,     0.000,   9,   1,1.04430,  -8.6942,   1
  4721,'RAFFEEN     ', 110.0000,1,     0.000,     0.000,   3,   1,1.04414,  -0.2436,   1
  4722,'RAFFEEN     ', 220.0000,1,     0.000,     0.000,   3,   1,1.05043,   2.8766,   1
  4731,'RAFFEENB    ', 110.0000,1,     0.000,     0.000,   3,   1,1.04368,  -0.4926,   1
  4741,'RINAWADE    ', 110.0000,1,     0.000,     0.000,   2,   1,1.05257,  -9.3357,   1
  4761,'RINGASKI    ', 110.0000,1,     0.000,     0.000,   3,   1,1.04344,  -0.5084,   2
  4781,'RATRUSSA    ', 110.0000,1,     0.000,     0.000,  10,   1,1.05000, -13.2377,   1
  4901,'SHELTON     ', 110.0000,1,     0.000,     0.000,   6,   1,1.06838,  -6.5414,   5
  4911,'SUIR        ', 110.0000,1,     0.000,     0.000,   5,   1,1.06935,  -6.2161,   4
  4941,'SHANNONB    ', 110.0000,1,     0.000,     0.000,   5,   1,1.07500,  -5.0777,   1
  4942,'SHANNONB    ', 220.0000,1,     0.000,     0.000,   5,   1,1.06811,  -4.5726,   1
  4943,'SHANNONB    ', 220.0000,1,     0.000,     0.000,   5,   1,1.06811,  -4.5726,   1
  4951,'SALTHILL    ', 110.0000,1,     0.000,     0.000,   9,   1,1.06156,  -6.9197,   2
  4961,'SHANKILL    ', 110.0000,1,     0.000,     0.000,  10,   1,1.04522, -14.3501,   1
  4981,'SLIGO       ', 110.0000,1,     0.000,     0.000,   9,   1,1.04871, -11.7196,   1
  4991,'SORNE HI    ', 110.0000,1,     0.000,     0.000,   9,   1,1.02096, -14.0155,   2
  5001,'SOMERSET    ', 110.0000,1,     0.000,     0.000,   9,   1,1.06843,  -5.7461,   2
  5022,'SHELLYBA    ', 220.0000,1,     0.000,     0.000,   2,   1,1.07555,  -5.9889,   1
  5031,'STEPHENS    ', 110.0000,1,     0.000,     0.000,   1,   1,1.04359, -11.6605,   2
  5041,'SRANANAG    ', 110.0000,1,     0.000,     0.000,   9,   1,1.05233, -11.2841,   1
  5042,'SRANANAG    ', 220.0000,1,     0.000,     0.000,   9,   1,1.05622, -10.0927,   1
  5051,'SEAL ROC    ', 110.0000,1,     0.000,     0.000,   7,   1,1.05044,   0.3209,   4
  5061,'STRATFOR    ', 110.0000,1,     0.000,     0.000,   6,   1,1.04793,  -6.8025,   2
  5071,'SEAL ROC    ', 110.0000,1,     0.000,     0.000,   7,   1,1.05044,   0.3209,   4
  5091,'SINGLAND    ', 110.0000,1,     0.000,     0.000,   7,   1,1.05045,  -3.8654,   1
  5122,'SHELLYBA    ', 220.0000,1,     0.000,     0.000,   2,   1,1.07473,  -6.6462,   1
  5131,'TANEY       ', 110.0000,1,     0.000,     0.000,   1,   1,1.05727, -10.2058,   2
  5141,'TARBERT     ', 110.0000,1,     0.000,     0.000,   7,   1,1.07160,  -0.4597,   1
  5142,'TARBERT     ', 220.0000,1,     0.000,     0.000,   7,   1,1.07160,  -0.4597,   1
  5172,'TYNAGH      ', 220.0000,1,     0.000,     0.000,   4,   1,1.07500,  -1.3277,   1
  5181,'TRABEG      ', 110.0000,1,     0.000,     0.000,   3,   1,1.03867,  -1.4466,   1
  5191,'TIEVEBRA    ', 110.0000,1,     0.000,     0.000,   9,   1,1.03332, -13.8666,   1
  5202,'TURLOUGH    ', 220.0000,1,     0.000,     0.000,   2,   1,1.06758,  -4.7934,   1
  5221,'TULLABRA    ', 110.0000,1,     0.000,     0.000,   4,   1,1.06139,  -2.8055,   2
  5222,'SHELLYBA    ', 220.0000,1,     0.000,     0.000,   2,   1,1.07473,  -6.6462,   1
  5231,'TRINITY     ', 110.0000,1,     0.000,     0.000,   1,   1,1.06682,  -9.8283,   2
  5241,'TAWNAGHM    ', 110.0000,1,     0.000,     0.000,   9,   1,1.04956, -12.2827,   2
  5251,'TAWN_B      ', 110.0000,1,     0.000,     0.000,   9,   1,1.04956, -12.2827,   2
  5261,'TRIEN       ', 110.0000,1,     0.000,     0.000,   7,   1,1.04998,  -2.4928,   1
  5271,'CAUTEEN     ', 110.0000,1,     0.000,     0.000,   5,   1,1.05737,  -4.6376,   1
  5281,'TRALEE      ', 110.0000,1,     0.000,     0.000,   7,   1,1.05114,  -2.7645,   1
  5301,'THURLES     ', 110.0000,1,     0.000,     0.000,   5,   1,1.05661,  -6.4724,   1
  5321,'THORNSBE    ', 110.0000,1,     0.000,     0.000,   8,   1,1.04224,  -8.8399,   2
  5341,'TONROE      ', 110.0000,1,     0.000,     0.000,   9,   1,1.03262, -11.2728,   2
  5361,'TRILLICK    ', 110.0000,1,     0.000,     0.000,   9,   1,1.02000, -14.1724,   2
  5381,'TIPPERAR    ', 110.0000,1,     0.000,     0.000,   5,   1,1.05947,  -5.5390,   1
  5441,'WATERFOR    ', 110.0000,1,     0.000,     0.000,   5,   1,1.06154,  -5.5335,   1
  5462,'WOODLAND    ', 220.0000,1,     0.000,     0.000,   2,   1,1.07765,  -5.0813,   1
  5464,'WOODLAND    ', 380.0000,1,     0.000,     0.000,   2,   1,1.02200,  -0.8393,   1
  5481,'WHITEGAT    ', 110.0000,1,     0.000,     0.000,   3,   1,1.04552,   0.0503,   1
  5501,'WEXFORD     ', 110.0000,1,     0.000,     0.000,   6,   1,1.06787,  -6.7482,   1
  5521,'WOLFE TO    ', 110.0000,1,     0.000,     0.000,   1,   1,1.06329,  -9.3952,   2
 10204,'ARDNACRU    ',  38.0000,1,     0.000,     0.000,   4,   1,1.05039,  -8.8196,   2
 10205,'ARDNACRU    ',  38.0000,1,     0.000,     0.000,   4,   1,1.05287,  -9.0118,   2
 10210,'ARDNACRU    ', 110.0000,1,     0.000,     0.000,   4,   1,1.05000,  -3.9288,   1
 10212,'KNOCKAST    ',  20.0000,1,     0.000,     0.000,   4,   1,1.01277,  -8.2786,   1
 10213,'MIENVEE     ',  20.0000,1,     0.000,     0.000,   4,   1,1.01256,  -9.5484,   1
 10261,'ARDNA_CA    ', 110.0000,1,     0.000,     0.000,   4,   1,1.05000,  -3.9288,   1
 10271,'ARDNG1      ',  10.5000,2,     0.000,     0.000,   4,   1,0.99908,   0.0815,   3
 10272,'ARDNG2      ',  10.5000,2,     0.000,     0.000,   4,   1,0.99816,   0.8150,   3
 10273,'ARDNG3      ',  10.5000,2,     0.000,     0.000,   4,   1,0.99989,  -0.4740,   3
 10274,'ARDNG4      ',  10.5000,2,     0.000,     0.000,   4,   1,1.00015,   0.5377,   3
 10275,'KNOCKAST    ',   0.6900,2,     0.000,     0.000,   4,   1,1.01319,  -8.3947,   1
 10276,'MIENVEE     ',   0.6900,2,     0.000,     0.000,   4,   1,1.01294,  -9.9171,   1