0,   100.00          / PSS/E-30.3    MON, NOV 18 2013  18:14
AITYTFS Winter Peak 2022/23

    10,'F_M         ',  38.0000,1,     0.000,     0.000,   2,   1,1.05896, -12.9808,   2
    11,'FMN LOOP    ',  38.0000,1,     0.000,     0.000,   2,   1,1.06837, -10.7847,   2
    12,'BEDFORD     ',  38.0000,1,     0.000,     0.000,   1,   1,1.06116, -12.8306,   2
    13,'M_R         ',  38.0000,1,     0.000,     0.000,   1,   1,1.05433, -12.2322,   2
    14,'F_I         ',  38.0000,1,     0.000,     0.000,   2,   1,1.04876, -12.3745,   2
    15,'I_M         ',  38.0000,1,     0.000,     0.000,   2,   1,1.07304, -12.6736,   2
  1021,'ARDNACRU    ', 110.0000,1,     0.000,     0.000,   4,   1,1.05000,  -5.6779,   1
  1041,'AGHADA      ', 110.0000,1,     0.000,     0.000,   3,   1,1.03877,  -1.5678,   1
  1042,'AGHADA      ', 220.0000,1,     0.000,     0.000,   3,   1,1.04000,   1.6708,   1
  1052,'AGHADA_B    ', 220.0000,1,     0.000,     0.000,   3,   1,1.04077,   1.5129,   1
  1061,'ARIGNA      ', 110.0000,1,     0.000,     0.000,   9,   1,1.05363,  -7.5171,   2
  1062,'AGH_AT14    ', 220.0000,1,     0.000,     0.000,   3,   1,1.04000,   1.6708,   1
  1071,'AGANNYGA    ', 110.0000,1,     0.000,     0.000,   4,   1,1.06114,  -4.1296,   1
  1072,'AGHT2102    ', 220.0000,1,     0.000,     0.000,   3,   1,1.03995,   1.6552,   1
  1081,'AHANE       ', 110.0000,1,     0.000,     0.000,   7,   1,1.04667,  -5.4526,   2
  1091,'ADAMSTOW    ', 110.0000,1,     0.000,     0.000,   1,   1,1.02861, -10.8906,   2
  1101,'ANNER       ', 110.0000,1,     0.000,     0.000,   5,   1,1.04163,  -8.0362,   5
  1121,'ARKLOW      ', 110.0000,1,     0.000,     0.000,   6,   1,1.05554,  -5.6875,   1
  1122,'ARKLOW      ', 220.0000,1,     0.000,     0.000,   6,   1,1.05538,  -4.5411,   1
  1131,'ATHEA       ', 110.0000,1,     0.000,     0.000,   7,   1,1.04990,   2.2280,   4
  1141,'ATHLONE     ', 110.0000,1,     0.000,     0.000,   9,   1,1.06168,  -6.9634,   1
  1151,'ATHEA-2     ', 110.0000,1,     0.000,     0.000,   7,   1,1.04990,   2.2280,   1
  1161,'AUGHINIS    ', 110.0000,1,     0.000,     0.000,   7,   1,1.05000,  -3.8840,   1
  1181,'ARVA        ', 110.0000,1,     0.000,     0.000,  10,   1,1.04345, -10.1705,   1
  1201,'ARTANE      ', 110.0000,1,     0.000,     0.000,   1,   1,1.06157,  -7.3191,   2
  1211,'BALLYVOU    ', 110.0000,1,     0.000,     0.000,   3,   1,1.04880,   2.1463,   1
  1212,'BALLYVOU    ', 220.0000,1,     0.000,     0.000,   3,   1,1.05501,   1.2302,   1
  1221,'ATHY        ', 110.0000,1,     0.000,     0.000,   8,   1,1.04947,  -6.4229,   1
  1231,'BALLYWAT    ', 110.0000,1,     0.000,     0.000,   6,   1,1.05000,  -5.4004,   4
  1251,'BOOLTIAG    ', 110.0000,1,     0.000,     0.000,   4,   1,1.05509,  -4.3574,   2
  1271,'BALTRASN    ', 110.0000,1,     0.000,     0.000,  10,   1,1.04221,  -8.5457,   1
  1281,'BALLYLIC    ', 110.0000,1,     0.000,     0.000,   3,   1,1.03941,  -3.7944,   2
  1301,'BALLYBEG    ', 110.0000,1,     0.000,     0.000,   6,   1,1.05321,  -6.3570,   1
  1311,'CORDAL      ', 110.0000,1,     0.000,     0.000,   3,   1,1.05219,   3.0584,   1
  1321,'BLAKE       ', 110.0000,1,     0.000,     0.000,   8,   1,1.04754,  -7.6792,   2
  1341,'BINBANE     ', 110.0000,1,     0.000,     0.000,   9,   1,1.03741,  -8.4346,   2
  1351,'BARODA      ', 110.0000,1,     0.000,     0.000,   8,   1,1.04585,  -8.1625,   1
  1361,'BALLYDIN    ', 110.0000,1,     0.000,     0.000,   5,   1,1.03668,  -7.5433,   1
  1381,'BARNAHEL    ', 110.0000,1,     0.000,     0.000,   3,   1,1.03575,  -2.2487,   1
  1391,'BARNAHEL    ', 110.0000,1,     0.000,     0.000,   3,   1,1.04629,  -2.6428,   1
  1400,'BELLACOR    ', 110.0000,1,     0.000,     0.000,   9,   1,1.06312,  -4.2755,   1
  1401,'BELLACOR    ', 110.0000,1,     0.000,     0.000,   9,   1,1.04202, -10.2777,   1
  1404,'BELLACOR    ', 380.0000,1,     0.000,     0.000,   9,   1,1.04229,  -4.2334,   1
  1421,'BLACKROC    ', 110.0000,1,     0.000,     0.000,   1,   1,1.04913,  -8.8619,   2
  1431,'BALLYRAG    ', 110.0000,1,     0.000,     0.000,   6,   1,1.04300,  -7.4414,   1
  1441,'BANDON      ', 110.0000,1,     0.000,     0.000,   3,   1,1.03145,  -4.3448,   1
  1451,'CLOGHRAN    ', 110.0000,1,     0.000,     0.000,   1,   1,1.05230,  -7.4244,   1
  1461,'BARRYMOR    ', 110.0000,1,     0.000,     0.000,   5,   1,1.03842,  -4.2100,   2
  1471,'BELCAMP     ', 110.0000,1,     0.000,     0.000,   1,   1,1.06003,  -7.1027,   2
  1472,'BELCAMP     ', 220.0000,1,     0.000,     0.000,   1,   1,1.07454,  -3.9732,   2
  1481,'BUTLERST    ', 110.0000,1,     0.000,     0.000,   5,   1,1.03636,  -6.1712,   1
  1492,'BALLAKEL    ', 220.0000,1,     0.000,     0.000,  10,   1,1.04070,  -5.6493,   1
  1501,'BRINNY      ', 110.0000,1,     0.000,     0.000,   3,   1,1.03125,  -4.3576,   5
  1511,'KNOCKNAG    ', 110.0000,1,     0.000,     0.000,   7,   1,1.05000,   2.5259,   1
  1541,'BANOGE      ', 110.0000,1,     0.000,     0.000,   6,   1,1.04764,  -5.9794,   1
  1551,'BOGGERAG    ', 110.0000,1,     0.000,     0.000,   3,   1,1.05000,   3.2587,   1
  1571,'ARDNAGAP    ', 110.0000,1,     0.000,     0.000,   9,   1,1.01670,  -9.6770,   2
  1581,'CABRA       ', 110.0000,1,     0.000,     0.000,   1,   1,1.06068,  -7.3827,   2
  1601,'CLASHAVO    ', 110.0000,1,     0.000,     0.000,   3,   1,1.04429,  -2.8589,   1
  1602,'CLASHAVO    ', 220.0000,1,     0.000,     0.000,   3,   1,1.05053,   0.6380,   1
  1611,'CLONKEEN    ', 110.0000,1,     0.000,     0.000,   7,   1,1.04230,  -4.3000,   1
  1621,'COOLROE     ', 110.0000,1,     0.000,     0.000,   3,   1,1.03926,  -3.3717,   1
  1631,'CORDERRY    ', 110.0000,1,     0.000,     0.000,   9,   1,1.05635,  -7.3108,   1
  1641,'CASHLA      ', 110.0000,1,     0.000,     0.000,   9,   1,1.06403,  -5.7084,   1
  1642,'CASHLA      ', 220.0000,1,     0.000,     0.000,   9,   1,1.06817,  -3.3669,   1
  1651,'CLAHANE     ', 110.0000,1,     0.000,     0.000,   7,   1,1.06699,  -4.4784,   1
  1661,'CASTLEBA    ', 110.0000,1,     0.000,     0.000,   9,   1,1.05000, -10.3286,   1
  1681,'CARRIGAD    ', 110.0000,1,     0.000,     0.000,   3,   1,1.04179,  -3.1341,   1
  1691,'CENTRAL     ', 110.0000,1,     0.000,     0.000,   1,   1,1.05088,  -8.7100,   1
  1701,'CATH_FAL    ', 110.0000,1,     0.000,     0.000,   9,   1,1.05000,  -7.6598,   1
  1711,'CROMCAST    ', 110.0000,1,     0.000,     0.000,   1,   1,1.05866,  -7.2026,   1
  1721,'CAHIR       ', 110.0000,1,     0.000,     0.000,   5,   1,1.05372,  -7.3461,   1
  1731,'CROMCAST    ', 110.0000,1,     0.000,     0.000,   1,   1,1.05866,  -7.2026,   1
  1741,'CARRICKM    ', 110.0000,1,     0.000,     0.000,   2,   1,1.05105,  -8.6653,   1
  1742,'CARRICKM    ', 220.0000,1,     0.000,     0.000,   2,   1,1.06418,  -5.0204,   1
  1761,'CLIFF       ', 110.0000,1,     0.000,     0.000,   9,   1,1.04999,  -7.4506,   1
  1781,'CASTLEFA    ', 110.0000,1,     0.000,     0.000,   7,   1,1.04960,  -3.9049,   5
  1791,'BRACKLON    ', 110.0000,1,     0.000,     0.000,   8,   1,1.04706,  -7.4042,   1
  1801,'COOKSTOW    ', 110.0000,1,     0.000,     0.000,   1,   1,1.05394,  -6.5532,   2
  1821,'CLOON       ', 110.0000,1,     0.000,     0.000,   9,   1,1.05226,  -7.5292,   1
  1831,'SCREEB      ', 110.0000,1,     0.000,     0.000,   9,   1,1.04211,  -7.2568,   2
  1841,'CRANE       ', 110.0000,1,     0.000,     0.000,   6,   1,1.04818,  -5.5914,   1
  1851,'CHERRYWO    ', 110.0000,1,     0.000,     0.000,   2,   1,1.04797,  -8.8271,   1
  1861,'CARICKON    ', 110.0000,1,     0.000,     0.000,   9,   1,1.05445,  -7.9572,   1
  1871,'COLLEGE     ', 110.0000,1,     0.000,     0.000,   2,   1,1.05469,  -7.2332,   1
  1881,'CHARLEVI    ', 110.0000,1,     0.000,     0.000,   3,   1,1.02248,  -6.1918,   1
  1891,'CAULSTOW    ', 110.0000,1,     0.000,     0.000,  10,   1,1.03138,  -9.5331,   1
  1901,'CARLOW      ', 110.0000,1,     0.000,     0.000,   6,   1,1.05141,  -6.2264,   1
  1911,'CUILLEEN    ', 110.0000,1,     0.000,     0.000,   9,   1,1.06172,  -6.9645,   1
  1921,'COW CROS    ', 110.0000,1,     0.000,     0.000,   3,   1,1.03474,  -2.3316,   1
  1931,'CUNGHILL    ', 110.0000,1,     0.000,     0.000,   9,   1,1.05085,  -8.5027,   4
  1941,'CUSHALIN    ', 110.0000,1,     0.000,     0.000,   8,   1,1.07500,  -4.6351,   1
  1951,'CARROWBE    ', 110.0000,1,     0.000,     0.000,   9,   1,1.03758, -11.2789,   1
  1961,'CASTLEVI    ', 110.0000,1,     0.000,     0.000,   3,   1,1.03462,  -2.6378,   1
  1971,'COOMAGEA    ', 110.0000,1,     0.000,     0.000,   7,   1,1.05000,   3.5398,   4
  1981,'CORRACLA    ', 110.0000,1,     0.000,     0.000,   9,   1,1.04675, -10.3778,   1
  1991,'CASTLEDO    ', 110.0000,1,     0.000,     0.000,   6,   1,1.05012,  -4.6571,   1
  2001,'CULLENAG    ', 110.0000,1,     0.000,     0.000,   5,   1,1.04076,  -5.6444,   1
  2002,'CULLENAG    ', 220.0000,1,     0.000,     0.000,   5,   1,1.04649,  -2.2664,   1
  2011,'KNOCKNAG    ', 110.0000,1,     0.000,     0.000,   3,   1,1.04179,  -3.1341,   1
  2021,'CITY WES    ', 110.0000,1,     0.000,     0.000,   1,   1,1.02628, -11.1486,   2
  2041,'CORDUFF     ', 110.0000,1,     0.000,     0.000,   2,   1,1.05525,  -7.1492,   1
  2042,'CORDUFF     ', 220.0000,1,     0.000,     0.000,   2,   1,1.07500,  -3.4877,   1
  2051,'BLACKPOO    ', 110.0000,1,     0.000,     0.000,   3,   1,1.03191,  -3.5963,   1
  2052,'CORDUFFB    ', 220.0000,1,     0.000,     0.000,   2,   1,1.07500,  -3.4877,   1
  2081,'DUNKETTL    ', 110.0000,4,     0.000,     0.000,   3,   1,1.00000,   0.0000,   5
  2090,'WEST GAL    ', 110.0000,1,     0.000,     0.000,   9,   1,1.05220,  -4.8748,   1
  2091,'WEST GAL    ', 110.0000,1,     0.000,     0.000,   9,   1,1.05020,  -6.6686,   1
  2101,'DUNDALK     ', 110.0000,1,     0.000,     0.000,  10,   1,1.03709,  -9.4207,   2
  2111,'UGOOL       ', 110.0000,1,     0.000,     0.000,   9,   1,1.05000,  -4.2190,   1
  2121,'DRUMLINE    ', 110.0000,1,     0.000,     0.000,   4,   1,1.04721,  -6.3290,   1
  2131,'DROMADA     ', 110.0000,1,     0.000,     0.000,   3,   1,1.05000,   2.3197,   1
  2141,'DUNGARVA    ', 110.0000,1,     0.000,     0.000,   5,   1,1.02543,  -6.0317,   1
  2161,'DOON        ', 110.0000,1,     0.000,     0.000,   5,   1,1.04245,  -7.9837,   1
  2181,'DRYBRIDG    ', 110.0000,1,     0.000,     0.000,  10,   1,1.03070,  -9.6598,   1
  2202,'DUNSTOWN    ', 220.0000,1,     0.000,     0.000,   2,   1,1.07339,  -4.0830,   1
  2204,'DUNSTOWN    ', 380.0000,1,     0.000,     0.000,   2,   1,1.05768,  -2.4867,   1
  2221,'DUNMANWA    ', 110.0000,1,     0.000,     0.000,   3,   1,1.03719,  -3.8453,   1
  2231,'DERRYBRI    ', 110.0000,1,     0.000,     0.000,   4,   1,1.06175,  -3.7196,   2
  2241,'DALLOW      ', 110.0000,1,     0.000,     0.000,   5,   1,1.06315,  -5.4394,   2
  2251,'DARDISTO    ', 110.0000,1,     0.000,     0.000,   1,   1,1.05877,  -7.1994,   2
  2261,'DERRYIRO    ', 110.0000,1,     0.000,     0.000,   8,   1,1.04348,  -7.7951,   1
  2281,'DALTON      ', 110.0000,1,     0.000,     0.000,   9,   1,1.04540,  -9.0213,   1
  2301,'DUNFIRTH    ', 110.0000,1,     0.000,     0.000,   8,   1,1.04661,  -8.0954,   2
  2321,'DRUMKEEN    ', 110.0000,1,     0.000,     0.000,   9,   1,1.04569,  -8.5577,   1
  2361,'ENNIS       ', 110.0000,1,     0.000,     0.000,   4,   1,1.04748,  -5.8630,   1
  2391,'KILL HIL    ', 110.0000,1,     0.000,     0.000,   5,   1,1.05726,  -6.9592,   1
  2401,'MOUNTLUC    ', 110.0000,1,     0.000,     0.000,   8,   1,1.05466,  -5.1557,   1
  2411,'KNOCKMUL    ', 110.0000,1,     0.000,     0.000,   6,   1,1.03895,  -5.9010,   1
  2481,'FASS EAS    ', 110.0000,1,     0.000,     0.000,   2,   1,1.04626,  -6.8141,   2
  2491,'FASS WES    ', 110.0000,1,     0.000,     0.000,   2,   1,1.04663,  -6.7973,   2
  2521,'FLAGFORD    ', 110.0000,1,     0.000,     0.000,   9,   1,1.05619,  -7.8165,   1
  2522,'FLAGFORD    ', 220.0000,1,     0.000,     0.000,   9,   1,1.07110,  -5.6359,   1
  2524,'FLAGFORD    ', 380.0000,1,     0.000,     0.000,   9,   1,1.03267,  -4.9574,   1
  2541,'FRN ST A    ', 110.0000,1,     0.000,     0.000,   1,   1,1.05941,  -8.2396,   2
  2551,'FRN ST B    ', 110.0000,1,     0.000,     0.000,   1,   1,1.05545,  -8.4083,   2
  2561,'FIN_URBA    ', 110.0000,1,     0.000,     0.000,   2,   1,1.06351,  -7.1294,   2
  2562,'FINGLAS     ', 220.0000,1,     0.000,     0.000,   2,   1,1.07500,  -3.6515,   1
  2563,'FINGLAS2    ', 220.0000,1,     0.000,     0.000,   2,   1,1.07500,  -3.6515,   1
  2571,'FIN_RURA    ', 110.0000,1,     0.000,     0.000,   2,   1,1.05868,  -7.1059,   2
  2581,'KILDONAN    ', 110.0000,1,     0.000,     0.000,   2,   1,1.05383,  -7.3224,   2
  2671,'GARVAGH     ', 110.0000,1,     0.000,     0.000,   9,   1,1.05622,  -7.1090,   4
  2681,'GILRA       ', 110.0000,1,     0.000,     0.000,   9,   1,1.05817,  -8.1019,   2
  2701,'GLASMORE    ', 110.0000,1,     0.000,     0.000,   1,   1,1.03316,  -8.4794,   2
  2721,'GRIFFINR    ', 110.0000,1,     0.000,     0.000,   2,   1,1.04769,  -7.7874,   2
  2731,'GLANLEE     ', 110.0000,1,     0.000,     0.000,   7,   1,1.04987,   3.5602,   4
  2741,'GREAT IS    ', 110.0000,1,     0.000,     0.000,   6,   1,1.04403,  -5.5006,   1
  2742,'GREAT IS    ', 220.0000,1,     0.000,     0.000,   6,   1,1.05000,  -1.8800,   1
  2744,'GREAT IS    ', 380.0000,1,     0.000,     0.000,   6,   1,1.06312,  -1.5472,   1
  2761,'GRANGE      ', 110.0000,1,     0.000,     0.000,   1,   1,1.05809,  -7.2294,   2
  2771,'GARROW      ', 110.0000,1,     0.000,     0.000,   7,   1,1.04907,   2.8543,   7
  2780,'GALWAY      ', 110.0000,1,     0.000,     0.000,   9,   1,1.05387,  -6.1387,   1
  2781,'GALWAY      ', 110.0000,1,     0.000,     0.000,   9,   1,1.05387,  -6.1387,   1
  2801,'GOLAGH      ', 110.0000,1,     0.000,     0.000,   9,   1,1.04766,  -7.7180,   4
  2821,'GORTAWEE    ', 110.0000,1,     0.000,     0.000,   9,   1,1.04514, -10.7720,   1
  2841,'GORMAN      ', 110.0000,1,     0.000,     0.000,  10,   1,1.02803,  -9.6102,   1
  2842,'GORMAN      ', 220.0000,1,     0.000,     0.000,  10,   1,1.04481,  -6.3428,   1
  2852,'GLANAGOW    ', 220.0000,1,     0.000,     0.000,   3,   1,1.04039,   1.6143,   1
  2861,'GRANGE C    ', 110.0000,1,     0.000,     0.000,   1,   1,1.02883, -10.8759,   2
  2870,'CLOGHER     ', 110.0000,1,     0.000,     0.000,   9,   1,1.04902,  -7.7070,   1
  2871,'CLOGHER     ', 110.0000,1,     0.000,     0.000,   9,   1,1.04902,  -7.7070,   1
  2881,'GLENLARA    ', 110.0000,1,     0.000,     0.000,   3,   1,1.01295,  -6.6588,   2
  2941,'HAROLDS     ', 110.0000,1,     0.000,     0.000,   1,   1,1.06024,  -8.2185,   2
  2951,'HEUSTON     ', 110.0000,1,     0.000,     0.000,   1,   1,1.05575,  -8.3889,   2
  2962,'HUNTSTOW    ', 220.0000,1,     0.000,     0.000,   2,   1,1.07537,  -3.5561,   4
  2972,'HUNTSTOW    ', 220.0000,1,     0.000,     0.000,   2,   1,1.07585,  -3.1955,   4
  2981,'HARTNETT    ', 110.0000,1,     0.000,     0.000,   3,   1,1.04070,  -3.1887,   2
  3061,'INISCARR    ', 110.0000,1,     0.000,     0.000,   3,   1,1.04094,  -3.2741,   1
  3081,'INCH_CIT    ', 110.0000,1,     0.000,     0.000,   2,   1,1.05628,  -8.3418,   2
  3082,'INCHICOR    ', 220.0000,1,     0.000,     0.000,   2,   1,1.06845,  -5.7413,   1
  3091,'INCH_COU    ', 110.0000,1,     0.000,     0.000,   2,   1,1.03410, -10.6494,   2
  3101,'IKERRIN     ', 110.0000,1,     0.000,     0.000,   5,   1,1.05640,  -6.8064,   2
  3122,'IRISHTOW    ', 220.0000,1,     0.000,     0.000,   2,   1,1.07138,  -4.7315,   1
  3190,'NORTH KE    ', 110.0000,1,     0.000,     0.000,   7,   1,1.06825,  -4.3104,   1
  3191,'NORTH KE    ', 110.0000,1,     0.000,     0.000,   7,   1,1.05315,   1.5850,   1
  3192,'NORTH KE    ', 220.0000,1,     0.000,     0.000,   7,   1,1.07030,   0.1491,   1
  3194,'NORTH KE    ', 380.0000,1,     0.000,     0.000,   7,   1,1.07439,   0.6156,   1
  3200,'KNOCKRAH    ', 110.0000,1,     0.000,     0.000,   3,   1,1.03885,  -2.4976,   1
  3201,'KNOCKRAH    ', 110.0000,1,     0.000,     0.000,   3,   1,1.03885,  -2.4976,   1
  3202,'KNOCKRAH    ', 220.0000,1,     0.000,     0.000,   3,   1,1.04513,   0.0299,   1
  3203,'KNOCKRAH    ', 220.0000,1,     0.000,     0.000,   3,   1,1.04112,  -0.2038,   1
  3204,'KNOCKRAH    ', 380.0000,1,     0.000,     0.000,   3,   1,1.05876,  -0.8017,   1
  3209,'KNOCKRAH    ', 110.0000,1,     0.000,     0.000,   3,   1,1.03885,  -2.4976,   1
  3211,'KNOCKAVA    ', 110.0000,1,     0.000,     0.000,   4,   1,1.06127,  -3.7860,   1
  3221,'KILBARRY    ', 110.0000,1,     0.000,     0.000,   3,   1,1.03195,  -3.5934,   1
  3241,'KILTEEL     ', 110.0000,1,     0.000,     0.000,   8,   1,1.04892,  -8.7760,   2
  3251,'REAMORE     ', 110.0000,1,     0.000,     0.000,   7,   1,1.06037,  -4.5231,   1
  3261,'KILKENNY    ', 110.0000,1,     0.000,     0.000,   6,   1,1.04285,  -7.7671,   1
  3281,'KILLONAN    ', 110.0000,1,     0.000,     0.000,   7,   1,1.04706,  -5.4140,   1
  3282,'KILLONAN    ', 220.0000,1,     0.000,     0.000,   7,   1,1.05532,  -3.2559,   1
  3301,'KNOCKERA    ', 110.0000,1,     0.000,     0.000,   7,   1,1.04072,  -5.2793,   1
  3321,'KNOCKUMB    ', 110.0000,1,     0.000,     0.000,  10,   1,1.01844, -10.2345,   5
  3330,'BALLYNAH    ', 110.0000,1,     0.000,     0.000,   3,   1,1.05110,   2.5985,   1
  3331,'BALLYNAH    ', 110.0000,1,     0.000,     0.000,   3,   1,1.05110,   2.5985,   1
  3332,'BALLYNAH    ', 220.0000,1,     0.000,     0.000,   3,   1,1.05863,   1.3147,   1
  3341,'KELLIS      ', 110.0000,1,     0.000,     0.000,   6,   1,1.05691,  -6.1220,   1
  3342,'KELLIS      ', 220.0000,1,     0.000,     0.000,   6,   1,1.04973,  -3.9824,   1
  3361,'KILTOY      ', 110.0000,1,     0.000,     0.000,   9,   1,1.04101,  -9.1723,   5
  3381,'KINNEGAD    ', 110.0000,1,     0.000,     0.000,   8,   1,1.04362,  -8.3653,   1
  3391,'KNOCKACU    ', 110.0000,1,     0.000,     0.000,   3,   1,1.05000,   3.6838,   1
  3401,'KILLOTER    ', 110.0000,1,     0.000,     0.000,   5,   1,1.03720,  -6.1008,   1
  3421,'KILMORE     ', 110.0000,1,     0.000,     0.000,   1,   1,1.05865,  -7.2022,   2
  3431,'KILMAHUD    ', 110.0000,1,     0.000,     0.000,   1,   1,1.02855, -10.8937,   1
  3461,'KILPADDO    ', 110.0000,1,     0.000,     0.000,   7,   1,1.06471,  -3.5731,   1
  3462,'KILPADDO    ', 220.0000,1,     0.000,     0.000,   7,   1,1.07400,  -1.1016,   1
  3472,'KILPADDO    ', 220.0000,1,     0.000,     0.000,   7,   1,1.07400,  -1.1016,   1
  3501,'LANESBOR    ', 110.0000,1,     0.000,     0.000,   9,   1,1.05000,  -6.6588,   1
  3521,'LOUTHA      ', 110.0000,1,     0.000,     0.000,  10,   1,1.06104,  -8.5073,   1
  3522,'LOUTH       ', 220.0000,1,     0.000,     0.000,  10,   1,1.04068,  -5.6491,   1
  3541,'LIMERICK    ', 110.0000,1,     0.000,     0.000,   7,   1,1.04199,  -5.7837,   1
  3550,'LAOIS_ST    ', 110.0000,4,     0.000,     0.000,   8,   1,1.06399,  -3.1849,   1
  3551,'LAOIS       ', 110.0000,1,     0.000,     0.000,   8,   1,1.05638,  -5.9226,   1
  3554,'LAOIS       ', 380.0000,1,     0.000,     0.000,   8,   1,1.06414,  -2.1326,   1
  3561,'LISDRUM     ', 110.0000,1,     0.000,     0.000,  10,   1,1.05350, -10.8766,   1
  3581,'LETTERKE    ', 110.0000,1,     0.000,     0.000,   9,   1,1.04100,  -9.1720,   1
  3601,'LIBERTY     ', 110.0000,1,     0.000,     0.000,   3,   1,1.03196,  -3.5673,   2
  3611,'LIBERTY     ', 110.0000,1,     0.000,     0.000,   3,   1,1.03227,  -3.5581,   2
  3621,'LISHEEN     ', 110.0000,1,     0.000,     0.000,   5,   1,1.05000,  -6.8975,   5
  3641,'LODGEWOO    ', 110.0000,1,     0.000,     0.000,   6,   1,1.05051,  -4.7320,   1
  3642,'LODGEWOO    ', 220.0000,1,     0.000,     0.000,   6,   1,1.05248,  -3.6646,   1
  3651,'CRORY       ', 110.0000,1,     0.000,     0.000,   5,   1,1.05051,  -4.7320,   1
  3751,'MISERY H    ', 110.0000,1,     0.000,     0.000,   1,   1,1.06095,  -8.1884,   2
  3761,'MACETOWN    ', 110.0000,1,     0.000,     0.000,   1,   1,1.05284,  -7.3760,   1
  3781,'MCDERMOT    ', 110.0000,1,     0.000,     0.000,   1,   1,1.06085,  -7.3682,   2
  3801,'MIDLETON    ', 110.0000,1,     0.000,     0.000,   3,   1,1.03231,  -2.6823,   1
  3821,'MEATH HI    ', 110.0000,1,     0.000,     0.000,  10,   1,1.02579,  -9.3574,   2
  3841,'MAYNOOTH    ', 110.0000,1,     0.000,     0.000,   2,   1,1.05042,  -7.6395,   1
  3842,'MAYNOOTH    ', 220.0000,1,     0.000,     0.000,   2,   1,1.06309,  -5.4711,   1
  3851,'MAYNOOTH    ', 110.0000,1,     0.000,     0.000,   2,   1,1.05558,  -7.0529,   1
  3852,'MAYNOOTH    ', 220.0000,1,     0.000,     0.000,   2,   1,1.07031,  -4.7265,   1
  3861,'MILLTOWN    ', 110.0000,1,     0.000,     0.000,   1,   1,1.06248,  -8.1229,   2
  3871,'MILLTOWN    ', 110.0000,1,     0.000,     0.000,   1,   1,1.05127,  -8.5363,   2
  3881,'MACROOM     ', 110.0000,1,     0.000,     0.000,   3,   1,1.04191,  -3.1273,   1
  3901,'MONETEEN    ', 110.0000,1,     0.000,     0.000,   7,   1,1.04145,  -5.5950,   1
  3934,'MNYPG1      ', 380.0000,1,     0.000,     6.000,   4,   1,1.07500,   0.7096,   1
  3941,'MONEYPOI    ', 110.0000,1,     0.000,     0.000,   4,   1,1.06712,  -3.0714,   1
  3942,'MONEYPOI    ', 220.0000,1,     0.000,     0.000,   4,   1,1.07586,  -1.0013,   1
  3944,'MNYPG3      ', 380.0000,1,     0.000,     6.000,   4,   1,1.07500,   0.7096,   1
  3954,'MNYPG2      ', 380.0000,1,     0.000,     6.000,   4,   1,1.07500,   0.7096,   1
  3961,'MARINA      ', 110.0000,1,     0.000,     0.000,   3,   1,1.03239,  -3.5447,   1
  3981,'MUNGRET     ', 110.0000,1,     0.000,     0.000,   7,   1,1.04122,  -5.6082,   5
  3991,'MUNGRET     ', 110.0000,1,     0.000,     0.000,   7,   1,1.04123,  -5.6076,   5
  4001,'MULLINGA    ', 110.0000,1,     0.000,     0.000,   9,   1,1.04654,  -9.0892,   1
  4021,'MALLOW      ', 110.0000,1,     0.000,     0.000,   3,   1,1.02192,  -5.5652,   1
  4041,'MOY         ', 110.0000,1,     0.000,     0.000,   9,   1,1.04187,  -9.9512,   1
  4061,'MULLAGHA    ', 110.0000,1,     0.000,     0.000,  10,   1,1.04060,  -9.3497,   2
  4071,'MEENTYCA    ', 110.0000,1,     0.000,     0.000,   9,   1,1.04730,  -8.3165,   4
  4081,'MONREAD     ', 110.0000,1,     0.000,     0.000,   8,   1,1.04671,  -8.6136,   1
  4091,'MULREAVY    ', 110.0000,1,     0.000,     0.000,   9,   1,1.05000,  -7.5381,   1
  4101,'NEWBURY     ', 110.0000,1,     0.000,     0.000,   1,   1,1.05844,  -7.2163,   2
  4111,'BANCROFT    ', 110.0000,1,     0.000,     0.000,   1,   1,1.05307,  -6.5219,   2
  4201,'NEWBRIDG    ', 110.0000,1,     0.000,     0.000,   8,   1,1.04786,  -7.6625,   1
  4211,'NORTH QU    ', 110.0000,1,     0.000,     0.000,   1,   1,1.06297,  -8.0939,   2
  4221,'NAVAN       ', 110.0000,1,     0.000,     0.000,  10,   1,1.02356,  -9.9544,   1
  4242,'NORTH WA    ', 220.0000,1,     0.000,     0.000,   2,   1,1.07564,  -3.6529,   1
  4251,'NORE        ', 110.0000,1,     0.000,     0.000,   6,   1,1.04295,  -7.7698,   1
  4261,'NENAGH      ', 110.0000,1,     0.000,     0.000,   7,   1,1.01658,  -6.6217,   2
  4281,'NANGOR      ', 110.0000,1,     0.000,     0.000,   1,   1,1.02863, -10.8883,   2
  4341,'OLDCOURT    ', 110.0000,1,     0.000,     0.000,   3,   1,1.03467,  -2.3364,   5
  4351,'OLDCOURT    ', 110.0000,1,     0.000,     0.000,   3,   1,1.03474,  -2.3317,   5
  4361,'OUGHTRAG    ', 110.0000,1,     0.000,     0.000,   7,   1,1.04385,  -5.6444,   2
  4371,'GLENREE     ', 110.0000,1,     0.000,     0.000,   9,   1,1.05000,  -9.1519,   1
  4382,'OLDSTREE    ', 220.0000,1,     0.000,     0.000,   4,   1,1.07212,  -0.4677,   1
  4384,'OLDSTREE    ', 380.0000,1,     0.000,     0.000,   4,   1,1.06464,   0.0110,   1
  4401,'POPPINTR    ', 110.0000,1,     0.000,     0.000,   1,   1,1.05829,  -7.1795,   2
  4441,'POLLAPHU    ', 110.0000,1,     0.000,     0.000,   6,   1,1.05000,  -4.1556,   1
  4461,'POOLBEG     ', 110.0000,1,     0.000,     0.000,   2,   1,1.06347,  -8.0074,   2
  4462,'POOLBEG     ', 220.0000,1,     0.000,     0.000,   2,   1,1.07521,  -3.6461,   1
  4471,'POOLBEG     ', 110.0000,1,     0.000,     0.000,   2,   1,1.06346,  -8.0096,   2
  4472,'POOLBEG     ', 220.0000,1,     0.000,     0.000,   2,   1,1.07000,  -5.8686,   1
  4481,'PORTLAOI    ', 110.0000,1,     0.000,     0.000,   8,   1,1.05339,  -6.4214,   1
  4491,'PELLETST    ', 110.0000,1,     0.000,     0.000,   1,   1,1.06143,  -7.3192,   2
  4501,'PLATIN      ', 110.0000,1,     0.000,     0.000,  10,   1,1.03078,  -9.5938,   1
  4511,'POTTERY     ', 110.0000,1,     0.000,     0.000,   1,   1,1.05024,  -8.7545,   2
  4522,'PROSPECT    ', 220.0000,1,     0.000,     0.000,   7,   1,1.07533,  -1.1790,   1
  4611,'RALAPPAN    ', 110.0000,1,     0.000,     0.000,   7,   1,1.06286,  -3.7344,   1
  4621,'RYEBROOK    ', 110.0000,1,     0.000,     0.000,   2,   1,1.04404,  -7.9113,   1
  4651,'RINGSEND    ', 110.0000,1,     0.000,     0.000,   1,   1,1.06312,  -8.0794,   2
  4681,'RATHKEAL    ', 110.0000,1,     0.000,     0.000,   7,   1,1.04387,  -5.0491,   1
  4701,'RICHMOND    ', 110.0000,1,     0.000,     0.000,   9,   1,1.04371,  -7.0198,   2
  4711,'RICHMOND    ', 110.0000,1,     0.000,     0.000,   9,   1,1.04371,  -7.0198,   1
  4721,'RAFFEEN     ', 110.0000,1,     0.000,     0.000,   3,   1,1.03634,  -2.2028,   1
  4722,'RAFFEEN     ', 220.0000,1,     0.000,     0.000,   3,   1,1.04081,   1.0855,   1
  4731,'RAFFEENB    ', 110.0000,1,     0.000,     0.000,   3,   1,1.04721,  -2.5897,   1
  4741,'RINAWADE    ', 110.0000,1,     0.000,     0.000,   2,   1,1.05156,  -7.4093,   1
  4761,'RINGASKI    ', 110.0000,1,     0.000,     0.000,   3,   1,1.04696,  -2.6069,   2
  4781,'RATRUSSA    ', 110.0000,1,     0.000,     0.000,  10,   1,1.05000,  -9.2569,   1
  4901,'SHELTON     ', 110.0000,1,     0.000,     0.000,   6,   1,1.05542,  -5.6954,   5
  4911,'SUIR        ', 110.0000,1,     0.000,     0.000,   5,   1,1.05382,  -7.3476,   4
  4941,'SHANNONB    ', 110.0000,1,     0.000,     0.000,   5,   1,1.07500,  -4.6195,   1
  4942,'SHANNONB    ', 220.0000,1,     0.000,     0.000,   5,   1,1.07036,  -4.2676,   1
  4943,'SHANNONB    ', 220.0000,1,     0.000,     0.000,   5,   1,1.07036,  -4.2676,   1
  4951,'SALTHILL    ', 110.0000,1,     0.000,     0.000,   9,   1,1.05241,  -6.3320,   2
  4961,'SHANKILL    ', 110.0000,1,     0.000,     0.000,  10,   1,1.04447, -10.5349,   1
  4981,'SLIGO       ', 110.0000,1,     0.000,     0.000,   9,   1,1.05064,  -8.3866,   1
  4991,'SORNE HI    ', 110.0000,1,     0.000,     0.000,   9,   1,1.02030,  -8.7175,   2
  5001,'SOMERSET    ', 110.0000,1,     0.000,     0.000,   9,   1,1.06567,  -5.2652,   2
  5022,'SHELLYBA    ', 220.0000,1,     0.000,     0.000,   2,   1,1.07530,  -3.6383,   1
  5031,'STEPHENS    ', 110.0000,1,     0.000,     0.000,   1,   1,1.04003,  -8.2441,   2
  5041,'SRANANAG    ', 110.0000,1,     0.000,     0.000,   9,   1,1.05577,  -7.7945,   1
  5042,'SRANANAG    ', 220.0000,1,     0.000,     0.000,   9,   1,1.06423,  -6.5349,   1
  5051,'SEAL ROC    ', 110.0000,1,     0.000,     0.000,   7,   1,1.05026,  -3.8607,   4
  5061,'STRATFOR    ', 110.0000,1,     0.000,     0.000,   6,   1,1.04398,  -5.7475,   2
  5071,'SEAL ROC    ', 110.0000,1,     0.000,     0.000,   7,   1,1.05026,  -3.8607,   4
  5091,'SINGLAND    ', 110.0000,1,     0.000,     0.000,   7,   1,1.04777,  -5.5908,   1
  5122,'SHELLYBA    ', 220.0000,1,     0.000,     0.000,   2,   1,1.07123,  -4.6529,   1
  5131,'TANEY       ', 110.0000,1,     0.000,     0.000,   1,   1,1.05063,  -8.7476,   2
  5141,'TARBERT     ', 110.0000,1,     0.000,     0.000,   7,   1,1.07429,  -1.1136,   1
  5142,'TARBERT     ', 220.0000,1,     0.000,     0.000,   7,   1,1.07429,  -1.1136,   1
  5172,'TYNAGH      ', 220.0000,1,     0.000,     0.000,   4,   1,1.07500,  -0.7116,   1
  5181,'TRABEG      ', 110.0000,1,     0.000,     0.000,   3,   1,1.03276,  -3.4950,   1
  5191,'TIEVEBRA    ', 110.0000,1,     0.000,     0.000,   9,   1,1.03340,  -8.9935,   1
  5202,'TURLOUGH    ', 220.0000,1,     0.000,     0.000,   2,   1,1.06842,  -3.5341,   1
  5221,'TULLABRA    ', 110.0000,1,     0.000,     0.000,   4,   1,1.06170,  -3.5273,   2
  5222,'SHELLYBA    ', 220.0000,1,     0.000,     0.000,   2,   1,1.07123,  -4.6529,   1
  5231,'TRINITY     ', 110.0000,1,     0.000,     0.000,   1,   1,1.06021,  -8.2186,   2
  5241,'TAWNAGHM    ', 110.0000,1,     0.000,     0.000,   9,   1,1.04191,  -9.9522,   2
  5251,'TAWN_B      ', 110.0000,1,     0.000,     0.000,   9,   1,1.04191,  -9.9522,   2
  5261,'TRIEN       ', 110.0000,1,     0.000,     0.000,   7,   1,1.06952,  -4.5506,   1
  5271,'CAUTEEN     ', 110.0000,1,     0.000,     0.000,   5,   1,1.05000,  -6.1035,   1
  5281,'TRALEE      ', 110.0000,1,     0.000,     0.000,   7,   1,1.06013,  -4.7221,   1
  5301,'THURLES     ', 110.0000,1,     0.000,     0.000,   5,   1,1.05721,  -7.2053,   1
  5321,'THORNSBE    ', 110.0000,1,     0.000,     0.000,   8,   1,1.04127,  -6.9831,   2
  5341,'TONROE      ', 110.0000,1,     0.000,     0.000,   9,   1,1.03695,  -8.2540,   2
  5361,'TRILLICK    ', 110.0000,1,     0.000,     0.000,   9,   1,1.01923,  -8.8718,   2
  5381,'TIPPERAR    ', 110.0000,1,     0.000,     0.000,   5,   1,1.04839,  -6.8886,   1
  5441,'WATERFOR    ', 110.0000,1,     0.000,     0.000,   5,   1,1.03887,  -5.9954,   1
  5462,'WOODLAND    ', 220.0000,1,     0.000,     0.000,   2,   1,1.07756,  -3.0936,   1
  5464,'WOODLAND    ', 380.0000,1,     0.000,     0.000,   2,   1,1.02826,  -0.2265,   1
  5481,'WHITEGAT    ', 110.0000,1,     0.000,     0.000,   3,   1,1.03663,  -1.8451,   1
  5501,'WEXFORD     ', 110.0000,1,     0.000,     0.000,   6,   1,1.04543,  -6.8324,   1
  5521,'WOLFE TO    ', 110.0000,1,     0.000,     0.000,   1,   1,1.06051,  -7.3890,   2