0,   100.00          / PSS/E-30.3    MON, NOV 18 2013  18:11
AITYTFS Winter Peak 2013/14

    10,'F_M         ',  38.0000,1,     0.000,     0.000,   2,   1,1.06551, -14.0963,   2
    11,'FMN LOOP    ',  38.0000,1,     0.000,     0.000,   2,   1,1.07361, -12.1478,   2
    12,'BEDFORD     ',  38.0000,1,     0.000,     0.000,   1,   1,1.05306, -15.8163,   2
    13,'M_R         ',  38.0000,1,     0.000,     0.000,   1,   1,1.07086, -16.3998,   2
    14,'F_I         ',  38.0000,1,     0.000,     0.000,   2,   1,1.05305, -14.3147,   2
    15,'I_M         ',  38.0000,1,     0.000,     0.000,   2,   1,1.06212, -14.6974,   2
  1021,'ARDNACRU    ', 110.0000,1,     0.000,     0.000,   4,   1,1.05000,  -5.6562,   1
  1041,'AGHADA      ', 110.0000,1,     0.000,     0.000,   3,   1,1.03805,  -2.3005,   1
  1042,'AGHADA      ', 220.0000,1,     0.000,     0.000,   3,   1,1.04000,   0.6851,   1
  1052,'AGHADA_B    ', 220.0000,1,     0.000,     0.000,   3,   1,1.04057,   0.5399,   1
  1061,'ARIGNA      ', 110.0000,1,     0.000,     0.000,   9,   1,1.04679, -11.3423,   2
  1062,'AGH_AT14    ', 220.0000,1,     0.000,     0.000,   3,   1,1.04000,   0.6851,   1
  1071,'AGANNYGA    ', 110.0000,1,     0.000,     0.000,   4,   1,1.06267,  -6.5208,   1
  1072,'AGHT2102    ', 220.0000,1,     0.000,     0.000,   3,   1,1.03995,   0.6708,   1
  1081,'AHANE       ', 110.0000,1,     0.000,     0.000,   7,   1,1.04979,  -5.1580,   2
  1101,'ANNER       ', 110.0000,1,     0.000,     0.000,   5,   1,1.04721, -10.1567,   5
  1121,'ARKLOW      ', 110.0000,1,     0.000,     0.000,   6,   1,1.06464,  -8.9468,   1
  1122,'ARKLOW      ', 220.0000,1,     0.000,     0.000,   6,   1,1.06455,  -7.4382,   1
  1131,'ATHEA       ', 110.0000,1,     0.000,     0.000,   7,   1,1.05356,  -0.0716,   4
  1141,'ATHLONE     ', 110.0000,1,     0.000,     0.000,   9,   1,1.06309,  -9.3863,   1
  1151,'ATHEA-2     ', 110.0000,1,     0.000,     0.000,   7,   1,1.05356,  -0.0716,   1
  1161,'AUGHINIS    ', 110.0000,1,     0.000,     0.000,   7,   1,1.05000,   0.1569,   1
  1181,'ARVA        ', 110.0000,1,     0.000,     0.000,  10,   1,1.04189, -13.9818,   1
  1201,'ARTANE      ', 110.0000,1,     0.000,     0.000,   1,   1,1.06480,  -9.0612,   2
  1221,'ATHY        ', 110.0000,1,     0.000,     0.000,   8,   1,1.04748,  -9.5921,   1
  1231,'BALLYWAT    ', 110.0000,1,     0.000,     0.000,   6,   1,1.06671,  -8.1103,   4
  1251,'BOOLTIAG    ', 110.0000,1,     0.000,     0.000,   4,   1,1.04060,  -7.4454,   2
  1271,'BALTRASN    ', 110.0000,1,     0.000,     0.000,  10,   1,1.04293, -11.2160,   1
  1281,'BALLYLIC    ', 110.0000,1,     0.000,     0.000,   3,   1,1.03135,  -4.4486,   2
  1301,'BALLYBEG    ', 110.0000,1,     0.000,     0.000,   6,   1,1.05817,  -9.8665,   1
  1321,'BLAKE       ', 110.0000,1,     0.000,     0.000,   8,   1,1.04337, -10.2585,   2
  1341,'BINBANE     ', 110.0000,1,     0.000,     0.000,   9,   1,1.03397, -14.8654,   2
  1351,'BARODA      ', 110.0000,1,     0.000,     0.000,   8,   1,1.04659, -10.5122,   1
  1361,'BALLYDIN    ', 110.0000,1,     0.000,     0.000,   5,   1,1.04594,  -9.6812,   1
  1381,'BARNAHEL    ', 110.0000,1,     0.000,     0.000,   3,   1,1.03547,  -2.8014,   1
  1391,'BARNAHEL    ', 110.0000,1,     0.000,     0.000,   3,   1,1.03155,  -3.0543,   1
  1401,'BELLACOR    ', 110.0000,1,     0.000,     0.000,   9,   1,1.05162, -13.5760,   1
  1421,'BLACKROC    ', 110.0000,1,     0.000,     0.000,   1,   1,1.04911, -10.6951,   2
  1441,'BANDON      ', 110.0000,1,     0.000,     0.000,   3,   1,1.02463,  -4.6384,   1
  1451,'CLOGHRAN    ', 110.0000,1,     0.000,     0.000,   1,   1,1.05290,  -9.7775,   1
  1461,'BARRYMOR    ', 110.0000,1,     0.000,     0.000,   5,   1,1.03568,  -5.6013,   2
  1481,'BUTLERST    ', 110.0000,1,     0.000,     0.000,   5,   1,1.05415,  -8.5255,   1
  1501,'BRINNY      ', 110.0000,1,     0.000,     0.000,   3,   1,1.02443,  -4.6514,   5
  1541,'BANOGE      ', 110.0000,1,     0.000,     0.000,   6,   1,1.06164,  -8.9027,   1
  1551,'BOGGERAG    ', 110.0000,1,     0.000,     0.000,   3,   1,1.05000,   2.0510,   1
  1581,'CABRA       ', 110.0000,1,     0.000,     0.000,   1,   1,1.06402,  -9.1181,   2
  1601,'CLASHAVO    ', 110.0000,1,     0.000,     0.000,   3,   1,1.04303,  -2.4978,   1
  1602,'CLASHAVO    ', 220.0000,1,     0.000,     0.000,   3,   1,1.04838,  -0.5974,   1
  1611,'CLONKEEN    ', 110.0000,1,     0.000,     0.000,   7,   1,1.04957,  -0.8572,   1
  1621,'COOLROE     ', 110.0000,1,     0.000,     0.000,   3,   1,1.03628,  -3.5038,   1
  1631,'CORDERRY    ', 110.0000,1,     0.000,     0.000,   9,   1,1.05044, -11.3770,   1
  1641,'CASHLA      ', 110.0000,1,     0.000,     0.000,   9,   1,1.06077,  -6.9114,   1
  1642,'CASHLA      ', 220.0000,1,     0.000,     0.000,   9,   1,1.06017,  -3.6941,   1
  1651,'CLAHANE     ', 110.0000,1,     0.000,     0.000,   7,   1,1.06135,  -0.9274,   1
  1661,'CASTLEBA    ', 110.0000,1,     0.000,     0.000,   9,   1,1.05000, -12.7092,   1
  1681,'CARRIGAD    ', 110.0000,1,     0.000,     0.000,   3,   1,1.03911,  -3.0895,   1
  1691,'CENTRAL     ', 110.0000,1,     0.000,     0.000,   1,   1,1.05224, -10.4944,   1
  1701,'CATH_FAL    ', 110.0000,1,     0.000,     0.000,   9,   1,1.05000, -13.7112,   1
  1711,'CROMCAST    ', 110.0000,1,     0.000,     0.000,   1,   1,1.05945, -10.5611,   1
  1721,'CAHIR       ', 110.0000,1,     0.000,     0.000,   5,   1,1.05309,  -9.5269,   1
  1731,'CROMCAST    ', 110.0000,1,     0.000,     0.000,   1,   1,1.05945, -10.5611,   1
  1741,'CARRICKM    ', 110.0000,1,     0.000,     0.000,   2,   1,1.05235, -10.4532,   1
  1742,'CARRICKM    ', 220.0000,1,     0.000,     0.000,   2,   1,1.06393,  -7.6516,   1
  1761,'CLIFF       ', 110.0000,1,     0.000,     0.000,   9,   1,1.05208, -13.5383,   1
  1781,'CASTLEFA    ', 110.0000,1,     0.000,     0.000,   7,   1,1.04960,   0.1361,   5
  1801,'COOKSTOW    ', 110.0000,1,     0.000,     0.000,   1,   1,1.05244, -10.5321,   2
  1821,'CLOON       ', 110.0000,1,     0.000,     0.000,   9,   1,1.05334,  -9.1288,   1
  1841,'CRANE       ', 110.0000,1,     0.000,     0.000,   6,   1,1.06536,  -8.3064,   1
  1861,'CARICKON    ', 110.0000,1,     0.000,     0.000,   9,   1,1.04598, -11.4333,   1
  1871,'COLLEGE     ', 110.0000,1,     0.000,     0.000,   2,   1,1.05523,  -9.5908,   1
  1881,'CHARLEVI    ', 110.0000,1,     0.000,     0.000,   3,   1,1.03427,  -4.6149,   1
  1901,'CARLOW      ', 110.0000,1,     0.000,     0.000,   6,   1,1.05607,  -8.9118,   1
  1911,'CUILLEEN    ', 110.0000,1,     0.000,     0.000,   9,   1,1.06313,  -9.3874,   1
  1921,'COW CROS    ', 110.0000,1,     0.000,     0.000,   3,   1,1.03438,  -2.9368,   1
  1931,'CUNGHILL    ', 110.0000,1,     0.000,     0.000,   9,   1,1.05120, -12.6820,   4
  1941,'CUSHALIN    ', 110.0000,1,     0.000,     0.000,   8,   1,1.07500,  -7.1894,   1
  1951,'CARROWBE    ', 110.0000,1,     0.000,     0.000,   9,   1,1.03928, -13.5711,   1
  1961,'CASTLEVI    ', 110.0000,1,     0.000,     0.000,   3,   1,1.03384,  -3.2989,   1
  1971,'COOMAGEA    ', 110.0000,1,     0.000,     0.000,   7,   1,1.05000,  -0.4329,   4
  1981,'CORRACLA    ', 110.0000,1,     0.000,     0.000,   9,   1,1.04518, -15.0852,   1
  1991,'CASTLEDO    ', 110.0000,1,     0.000,     0.000,   6,   1,1.06690,  -7.4420,   1
  2001,'CULLENAG    ', 110.0000,1,     0.000,     0.000,   5,   1,1.05669,  -7.9840,   1
  2002,'CULLENAG    ', 220.0000,1,     0.000,     0.000,   5,   1,1.06477,  -4.9691,   1
  2021,'CITY WES    ', 110.0000,1,     0.000,     0.000,   1,   1,1.02950, -13.1246,   2
  2041,'CORDUFF     ', 110.0000,1,     0.000,     0.000,   2,   1,1.05573,  -9.5128,   1
  2042,'CORDUFF     ', 220.0000,1,     0.000,     0.000,   2,   1,1.07500,  -5.5713,   1
  2052,'CORDUFFB    ', 220.0000,1,     0.000,     0.000,   2,   1,1.07500,  -5.5713,   1
  2081,'DUNKETTL    ', 110.0000,4,     0.000,     0.000,   3,   1,1.00000,   0.0000,   5
  2101,'DUNDALK     ', 110.0000,1,     0.000,     0.000,  10,   1,1.03628, -13.3068,   2
  2121,'DRUMLINE    ', 110.0000,1,     0.000,     0.000,   4,   1,1.04463,  -7.0637,   1
  2131,'DROMADA     ', 110.0000,1,     0.000,     0.000,   3,   1,1.05293,   0.0392,   1
  2141,'DUNGARVA    ', 110.0000,1,     0.000,     0.000,   5,   1,1.03625,  -7.5777,   1
  2161,'DOON        ', 110.0000,1,     0.000,     0.000,   5,   1,1.04803, -10.1049,   1
  2181,'DRYBRIDG    ', 110.0000,1,     0.000,     0.000,  10,   1,1.03158, -12.7625,   1
  2202,'DUNSTOWN    ', 220.0000,1,     0.000,     0.000,   2,   1,1.06291,  -5.7372,   1
  2204,'DUNSTOWN    ', 380.0000,1,     0.000,     0.000,   2,   1,1.02963,  -3.2353,   1
  2221,'DUNMANWA    ', 110.0000,1,     0.000,     0.000,   3,   1,1.02875,  -4.5427,   1
  2231,'DERRYBRI    ', 110.0000,1,     0.000,     0.000,   4,   1,1.06456,  -6.2581,   2
  2241,'DALLOW      ', 110.0000,1,     0.000,     0.000,   5,   1,1.06307,  -7.8562,   2
  2251,'DARDISTO    ', 110.0000,1,     0.000,     0.000,   1,   1,1.06016, -10.5264,   2
  2261,'DERRYIRO    ', 110.0000,1,     0.000,     0.000,   8,   1,1.04275,  -9.5698,   1
  2281,'DALTON      ', 110.0000,1,     0.000,     0.000,   9,   1,1.04247, -11.3419,   1
  2301,'DUNFIRTH    ', 110.0000,1,     0.000,     0.000,   8,   1,1.04464,  -9.8754,   2
  2321,'DRUMKEEN    ', 110.0000,1,     0.000,     0.000,   9,   1,1.03241, -15.8056,   1
  2361,'ENNIS       ', 110.0000,1,     0.000,     0.000,   4,   1,1.04160,  -7.3727,   1
  2401,'MOUNTLUC    ', 110.0000,1,     0.000,     0.000,   8,   1,1.05523,  -7.4802,   1
  2481,'FASS EAS    ', 110.0000,1,     0.000,     0.000,   2,   1,1.04608, -10.7519,   2
  2491,'FASS WES    ', 110.0000,1,     0.000,     0.000,   2,   1,1.04589, -10.7490,   2
  2521,'FLAGFORD    ', 110.0000,1,     0.000,     0.000,   9,   1,1.04724, -11.2546,   1
  2522,'FLAGFORD    ', 220.0000,1,     0.000,     0.000,   9,   1,1.04939,  -9.1109,   1
  2541,'FRN ST A    ', 110.0000,1,     0.000,     0.000,   1,   1,1.05852, -11.4826,   2
  2551,'FRN ST B    ', 110.0000,1,     0.000,     0.000,   1,   1,1.05637, -10.7717,   2
  2561,'FIN_URBA    ', 110.0000,1,     0.000,     0.000,   2,   1,1.06645,  -8.8900,   2
  2562,'FINGLAS     ', 220.0000,1,     0.000,     0.000,   2,   1,1.07500,  -5.7754,   1
  2563,'FINGLAS2    ', 220.0000,1,     0.000,     0.000,   2,   1,1.07500,  -5.7754,   1
  2571,'FIN_RURA    ', 110.0000,1,     0.000,     0.000,   2,   1,1.06108, -10.3236,   2
  2581,'KILDONAN    ', 110.0000,1,     0.000,     0.000,   2,   1,1.05440,  -9.6779,   2
  2671,'GARVAGH     ', 110.0000,1,     0.000,     0.000,   9,   1,1.05043, -11.1723,   4
  2681,'GILRA       ', 110.0000,1,     0.000,     0.000,   9,   1,1.04921, -11.5444,   2
  2701,'GLASMORE    ', 110.0000,1,     0.000,     0.000,   1,   1,1.03887, -11.5597,   2
  2721,'GRIFFINR    ', 110.0000,1,     0.000,     0.000,   2,   1,1.04637,  -9.9019,   2
  2731,'GLANLEE     ', 110.0000,1,     0.000,     0.000,   7,   1,1.04999,  -0.4137,   4
  2741,'GREAT IS    ', 110.0000,1,     0.000,     0.000,   6,   1,1.06266,  -8.1041,   1
  2742,'GREAT IS    ', 220.0000,1,     0.000,     0.000,   6,   1,1.07500,  -4.9750,   1
  2761,'GRANGE      ', 110.0000,1,     0.000,     0.000,   1,   1,1.05891, -10.5926,   2
  2771,'GARROW      ', 110.0000,1,     0.000,     0.000,   7,   1,1.05116,  -0.6559,   7
  2780,'GALWAY      ', 110.0000,1,     0.000,     0.000,   9,   1,1.04969,  -7.5822,   1
  2781,'GALWAY      ', 110.0000,1,     0.000,     0.000,   9,   1,1.04969,  -7.5822,   1
  2801,'GOLAGH      ', 110.0000,1,     0.000,     0.000,   9,   1,1.03835, -14.6157,   4
  2821,'GORTAWEE    ', 110.0000,1,     0.000,     0.000,   9,   1,1.04373, -15.2296,   1
  2841,'GORMAN      ', 110.0000,1,     0.000,     0.000,  10,   1,1.02830, -12.9066,   1
  2842,'GORMAN      ', 220.0000,1,     0.000,     0.000,  10,   1,1.04233,  -9.8526,   1
  2852,'GLANAGOW    ', 220.0000,1,     0.000,     0.000,   3,   1,1.04045,   0.6217,   1
  2861,'GRANGE C    ', 110.0000,1,     0.000,     0.000,   1,   1,1.03166, -12.8693,   2
  2881,'GLENLARA    ', 110.0000,1,     0.000,     0.000,   3,   1,1.04757,  -3.0831,   2
  2941,'HAROLDS     ', 110.0000,1,     0.000,     0.000,   1,   1,1.05882, -11.4661,   2
  2951,'HEUSTON     ', 110.0000,1,     0.000,     0.000,   1,   1,1.05662, -10.7541,   2
  2962,'HUNTSTOW    ', 220.0000,1,     0.000,     0.000,   2,   1,1.07548,  -5.6809,   4
  2972,'HUNTSTOW    ', 220.0000,1,     0.000,     0.000,   2,   1,1.07683,  -5.3120,   4
  3061,'INISCARR    ', 110.0000,1,     0.000,     0.000,   3,   1,1.03804,  -3.3792,   1
  3081,'INCH_CIT    ', 110.0000,1,     0.000,     0.000,   2,   1,1.05706, -10.7110,   2
  3082,'INCHICOR    ', 220.0000,1,     0.000,     0.000,   2,   1,1.06698,  -8.3237,   1
  3091,'INCH_COU    ', 110.0000,1,     0.000,     0.000,   2,   1,1.03640, -12.6770,   2
  3101,'IKERRIN     ', 110.0000,1,     0.000,     0.000,   5,   1,1.05497, -10.2344,   2
  3122,'IRISHTOW    ', 220.0000,1,     0.000,     0.000,   2,   1,1.07063,  -7.5815,   1
  3200,'KNOCKRAH    ', 110.0000,1,     0.000,     0.000,   3,   1,1.03736,  -3.2132,   1
  3201,'KNOCKRAH    ', 110.0000,1,     0.000,     0.000,   3,   1,1.03736,  -3.2132,   1
  3202,'KNOCKRAH    ', 220.0000,1,     0.000,     0.000,   3,   1,1.04102,  -0.6575,   1
  3203,'KNOCKRAH    ', 220.0000,1,     0.000,     0.000,   3,   1,1.04396,  -1.4291,   1
  3209,'KNOCKRAH    ', 110.0000,1,     0.000,     0.000,   3,   1,1.03736,  -3.2132,   1
  3221,'KILBARRY    ', 110.0000,1,     0.000,     0.000,   3,   1,1.02843,  -3.8976,   1
  3241,'KILTEEL     ', 110.0000,1,     0.000,     0.000,   8,   1,1.04972, -10.9511,   2
  3251,'REAMORE     ', 110.0000,1,     0.000,     0.000,   7,   1,1.05818,  -1.2801,   1
  3261,'KILKENNY    ', 110.0000,1,     0.000,     0.000,   6,   1,1.04937, -10.8279,   1
  3281,'KILLONAN    ', 110.0000,1,     0.000,     0.000,   7,   1,1.05013,  -5.1235,   1
  3282,'KILLONAN    ', 220.0000,1,     0.000,     0.000,   7,   1,1.04545,  -3.4426,   1
  3301,'KNOCKERA    ', 110.0000,1,     0.000,     0.000,   7,   1,1.04528,  -1.7381,   1
  3321,'KNOCKUMB    ', 110.0000,1,     0.000,     0.000,  10,   1,1.01901, -13.5252,   5
  3341,'KELLIS      ', 110.0000,1,     0.000,     0.000,   6,   1,1.06204,  -8.7983,   1
  3342,'KELLIS      ', 220.0000,1,     0.000,     0.000,   6,   1,1.05515,  -6.4005,   1
  3361,'KILTOY      ', 110.0000,1,     0.000,     0.000,   9,   1,1.02685, -16.5396,   5
  3381,'KINNEGAD    ', 110.0000,1,     0.000,     0.000,   8,   1,1.04146,  -9.8642,   1
  3391,'KNOCKACU    ', 110.0000,1,     0.000,     0.000,   3,   1,1.05000,  -2.8627,   1
  3401,'KILLOTER    ', 110.0000,1,     0.000,     0.000,   5,   1,1.05515,  -8.4836,   1
  3421,'KILMORE     ', 110.0000,1,     0.000,     0.000,   1,   1,1.05944, -10.5607,   2
  3431,'KILMAHUD    ', 110.0000,1,     0.000,     0.000,   1,   1,1.03138, -12.8871,   1
  3501,'LANESBOR    ', 110.0000,1,     0.000,     0.000,   9,   1,1.05000,  -9.3862,   1
  3521,'LOUTHA      ', 110.0000,1,     0.000,     0.000,  10,   1,1.06125, -12.3010,   1
  3522,'LOUTH       ', 220.0000,1,     0.000,     0.000,  10,   1,1.03838, -10.1512,   1
  3541,'LIMERICK    ', 110.0000,1,     0.000,     0.000,   7,   1,1.04441,  -5.0581,   1
  3561,'LISDRUM     ', 110.0000,1,     0.000,     0.000,  10,   1,1.05453, -14.6721,   1
  3581,'LETTERKE    ', 110.0000,1,     0.000,     0.000,   9,   1,1.02683, -16.5393,   1
  3601,'LIBERTY     ', 110.0000,1,     0.000,     0.000,   3,   1,1.02680,  -3.8932,   2
  3611,'LIBERTY     ', 110.0000,1,     0.000,     0.000,   3,   1,1.02709,  -3.8850,   2
  3621,'LISHEEN     ', 110.0000,1,     0.000,     0.000,   5,   1,1.05000, -10.8625,   5
  3641,'LODGEWOO    ', 110.0000,1,     0.000,     0.000,   6,   1,1.06728,  -7.5151,   1
  3642,'LODGEWOO    ', 220.0000,1,     0.000,     0.000,   6,   1,1.06899,  -6.5983,   1
  3651,'CRORY       ', 110.0000,1,     0.000,     0.000,   5,   1,1.06728,  -7.5151,   1
  3751,'MISERY H    ', 110.0000,1,     0.000,     0.000,   1,   1,1.05928, -11.4273,   2
  3761,'MACETOWN    ', 110.0000,1,     0.000,     0.000,   1,   1,1.05347,  -9.7276,   1
  3781,'MCDERMOT    ', 110.0000,1,     0.000,     0.000,   1,   1,1.06417,  -9.1054,   2
  3801,'MIDLETON    ', 110.0000,1,     0.000,     0.000,   3,   1,1.03181,  -3.3561,   1
  3821,'MEATH HI    ', 110.0000,1,     0.000,     0.000,  10,   1,1.02701, -13.0510,   2
  3841,'MAYNOOTH    ', 110.0000,1,     0.000,     0.000,   2,   1,1.04886,  -9.7663,   1
  3842,'MAYNOOTH    ', 220.0000,1,     0.000,     0.000,   2,   1,1.05888,  -7.8155,   1
  3851,'MAYNOOTH    ', 110.0000,1,     0.000,     0.000,   2,   1,1.05306,  -9.2062,   1
  3852,'MAYNOOTH    ', 220.0000,1,     0.000,     0.000,   2,   1,1.06573,  -6.7541,   1
  3861,'MILLTOWN    ', 110.0000,1,     0.000,     0.000,   1,   1,1.05945, -11.3947,   2
  3871,'MILLTOWN    ', 110.0000,1,     0.000,     0.000,   1,   1,1.05313, -10.8955,   2
  3881,'MACROOM     ', 110.0000,1,     0.000,     0.000,   3,   1,1.03947,  -3.0562,   1
  3901,'MONETEEN    ', 110.0000,1,     0.000,     0.000,   7,   1,1.04294,  -4.1507,   1
  3934,'MNYPG1      ', 380.0000,1,     0.000,     6.000,   4,   1,1.05000,   3.3663,   1
  3941,'MONEYPOI    ', 110.0000,1,     0.000,     0.000,   4,   1,1.03426,  -7.7861,   1
  3942,'MONEYPOI    ', 220.0000,1,     0.000,     0.000,   4,   1,1.06859,   0.7080,   1
  3944,'MNYPG3      ', 380.0000,1,     0.000,     6.000,   4,   1,1.05000,   3.3663,   1
  3954,'MNYPG2      ', 380.0000,1,     0.000,     6.000,   4,   1,1.05000,   4.1626,   1
  3961,'MARINA      ', 110.0000,1,     0.000,     0.000,   3,   1,1.02719,  -3.8727,   1
  3981,'MUNGRET     ', 110.0000,1,     0.000,     0.000,   7,   1,1.04271,  -4.1638,   5
  3991,'MUNGRET     ', 110.0000,1,     0.000,     0.000,   7,   1,1.04272,  -4.1632,   5
  4001,'MULLINGA    ', 110.0000,1,     0.000,     0.000,   9,   1,1.05062, -12.2761,   1
  4021,'MALLOW      ', 110.0000,1,     0.000,     0.000,   3,   1,1.02707,  -4.7767,   1
  4041,'MOY         ', 110.0000,1,     0.000,     0.000,   9,   1,1.05862, -14.0040,   1
  4061,'MULLAGHA    ', 110.0000,1,     0.000,     0.000,  10,   1,1.04451, -12.9902,   2
  4071,'MEENTYCA    ', 110.0000,1,     0.000,     0.000,   9,   1,1.03405, -15.5551,   4
  4081,'MONREAD     ', 110.0000,1,     0.000,     0.000,   8,   1,1.04761, -10.8557,   1
  4101,'NEWBURY     ', 110.0000,1,     0.000,     0.000,   1,   1,1.05924, -10.5758,   2
  4111,'BANCROFT    ', 110.0000,1,     0.000,     0.000,   1,   1,1.05152, -10.5048,   2
  4201,'NEWBRIDG    ', 110.0000,1,     0.000,     0.000,   8,   1,1.04663, -10.2028,   1
  4211,'NORTH QU    ', 110.0000,1,     0.000,     0.000,   1,   1,1.06012, -11.3583,   2
  4221,'NAVAN       ', 110.0000,1,     0.000,     0.000,  10,   1,1.02412, -13.2455,   1
  4242,'NORTH WA    ', 220.0000,1,     0.000,     0.000,   2,   1,1.07546,  -5.8684,   1
  4251,'NORE        ', 110.0000,1,     0.000,     0.000,   6,   1,1.04947, -10.8306,   1
  4261,'NENAGH      ', 110.0000,1,     0.000,     0.000,   7,   1,1.02295,  -6.2282,   2
  4281,'NANGOR      ', 110.0000,1,     0.000,     0.000,   1,   1,1.03146, -12.8817,   2
  4341,'OLDCOURT    ', 110.0000,1,     0.000,     0.000,   3,   1,1.03431,  -2.9416,   5
  4351,'OLDCOURT    ', 110.0000,1,     0.000,     0.000,   3,   1,1.03438,  -2.9369,   5
  4361,'OUGHTRAG    ', 110.0000,1,     0.000,     0.000,   7,   1,1.04520,  -2.2121,   2
  4371,'GLENREE     ', 110.0000,1,     0.000,     0.000,   9,   1,1.05406, -13.2962,   1
  4382,'OLDSTREE    ', 220.0000,1,     0.000,     0.000,   4,   1,1.06742,   0.9336,   1
  4384,'OLDSTREE    ', 380.0000,1,     0.000,     0.000,   4,   1,1.04975,   1.4940,   1
  4401,'POPPINTR    ', 110.0000,1,     0.000,     0.000,   1,   1,1.06007, -10.4528,   2
  4441,'POLLAPHU    ', 110.0000,1,     0.000,     0.000,   6,   1,1.05000,  -6.6476,   1
  4461,'POOLBEG     ', 110.0000,1,     0.000,     0.000,   2,   1,1.06065, -11.2513,   2
  4462,'POOLBEG     ', 220.0000,1,     0.000,     0.000,   2,   1,1.07493,  -5.8948,   1
  4471,'POOLBEG     ', 110.0000,1,     0.000,     0.000,   2,   1,1.06064, -11.2541,   2
  4472,'POOLBEG     ', 220.0000,1,     0.000,     0.000,   2,   1,1.06845,  -8.4743,   1
  4481,'PORTLAOI    ', 110.0000,1,     0.000,     0.000,   8,   1,1.04786,  -9.5767,   1
  4491,'PELLETST    ', 110.0000,1,     0.000,     0.000,   1,   1,1.06466,  -9.0608,   2
  4501,'PLATIN      ', 110.0000,1,     0.000,     0.000,  10,   1,1.03184, -12.6414,   1
  4511,'POTTERY     ', 110.0000,1,     0.000,     0.000,   1,   1,1.05105, -10.5580,   2
  4522,'PROSPECT    ', 220.0000,1,     0.000,     0.000,   7,   1,1.06626,  -0.1923,   1
  4621,'RYEBROOK    ', 110.0000,1,     0.000,     0.000,   2,   1,1.04276, -10.1615,   1
  4651,'RINGSEND    ', 110.0000,1,     0.000,     0.000,   1,   1,1.06024, -11.3451,   2
  4681,'RATHKEAL    ', 110.0000,1,     0.000,     0.000,   7,   1,1.04382,  -3.3852,   1
  4701,'RICHMOND    ', 110.0000,1,     0.000,     0.000,   9,   1,1.04442,  -9.7117,   2
  4711,'RICHMOND    ', 110.0000,1,     0.000,     0.000,   9,   1,1.04442,  -9.7117,   1
  4721,'RAFFEEN     ', 110.0000,1,     0.000,     0.000,   3,   1,1.03600,  -2.7601,   1
  4722,'RAFFEEN     ', 220.0000,1,     0.000,     0.000,   3,   1,1.04063,   0.1141,   1
  4731,'RAFFEENB    ', 110.0000,1,     0.000,     0.000,   3,   1,1.03238,  -3.0052,   1
  4741,'RINAWADE    ', 110.0000,1,     0.000,     0.000,   2,   1,1.04929,  -9.4807,   1
  4761,'RINGASKI    ', 110.0000,1,     0.000,     0.000,   3,   1,1.03215,  -3.0211,   2
  4781,'RATRUSSA    ', 110.0000,1,     0.000,     0.000,  10,   1,1.05000, -12.9923,   1
  4901,'SHELTON     ', 110.0000,1,     0.000,     0.000,   6,   1,1.06438,  -8.9621,   5
  4911,'SUIR        ', 110.0000,1,     0.000,     0.000,   5,   1,1.05319,  -9.5284,   4
  4941,'SHANNONB    ', 110.0000,1,     0.000,     0.000,   5,   1,1.07500,  -6.9602,   1
  4942,'SHANNONB    ', 220.0000,1,     0.000,     0.000,   5,   1,1.06476,  -5.8695,   1
  4943,'SHANNONB    ', 220.0000,1,     0.000,     0.000,   5,   1,1.06476,  -5.8695,   1
  4951,'SALTHILL    ', 110.0000,1,     0.000,     0.000,   9,   1,1.04821,  -7.7054,   2
  4961,'SHANKILL    ', 110.0000,1,     0.000,     0.000,  10,   1,1.04472, -14.2669,   1
  4981,'SLIGO       ', 110.0000,1,     0.000,     0.000,   9,   1,1.04646, -12.5863,   1
  4991,'SORNE HI    ', 110.0000,1,     0.000,     0.000,   9,   1,1.01098, -16.0374,   2
  5001,'SOMERSET    ', 110.0000,1,     0.000,     0.000,   9,   1,1.06581,  -7.3006,   2
  5022,'SHELLYBA    ', 220.0000,1,     0.000,     0.000,   2,   1,1.07499,  -5.8889,   1
  5031,'STEPHENS    ', 110.0000,1,     0.000,     0.000,   1,   1,1.04508, -11.3515,   2
  5041,'SRANANAG    ', 110.0000,1,     0.000,     0.000,   9,   1,1.05009, -12.1027,   1
  5042,'SRANANAG    ', 220.0000,1,     0.000,     0.000,   9,   1,1.04879, -10.4002,   1
  5051,'SEAL ROC    ', 110.0000,1,     0.000,     0.000,   7,   1,1.05044,   0.2066,   4
  5061,'STRATFOR    ', 110.0000,1,     0.000,     0.000,   6,   1,1.04732,  -8.3059,   2
  5071,'SEAL ROC    ', 110.0000,1,     0.000,     0.000,   7,   1,1.05044,   0.2066,   4
  5091,'SINGLAND    ', 110.0000,1,     0.000,     0.000,   7,   1,1.04960,  -5.4069,   1
  5122,'SHELLYBA    ', 220.0000,1,     0.000,     0.000,   2,   1,1.07038,  -7.5576,   1
  5131,'TANEY       ', 110.0000,1,     0.000,     0.000,   1,   1,1.05204, -10.5288,   2
  5141,'TARBERT     ', 110.0000,1,     0.000,     0.000,   7,   1,1.05992,  -1.0083,   1
  5142,'TARBERT     ', 220.0000,1,     0.000,     0.000,   7,   1,1.06297,  -0.6235,   1
  5172,'TYNAGH      ', 220.0000,1,     0.000,     0.000,   4,   1,1.07500,   0.6240,   1
  5181,'TRABEG      ', 110.0000,1,     0.000,     0.000,   3,   1,1.02710,  -3.8340,   1
  5202,'TURLOUGH    ', 220.0000,1,     0.000,     0.000,   2,   1,1.06189,  -5.0038,   1
  5221,'TULLABRA    ', 110.0000,1,     0.000,     0.000,   4,   1,1.03323,  -7.8345,   2
  5222,'SHELLYBA    ', 220.0000,1,     0.000,     0.000,   2,   1,1.07038,  -7.5576,   1
  5241,'TAWNAGHM    ', 110.0000,1,     0.000,     0.000,   9,   1,1.05866, -14.0050,   2
  5251,'TAWN_B      ', 110.0000,1,     0.000,     0.000,   9,   1,1.05866, -14.0050,   2
  5261,'TRIEN       ', 110.0000,1,     0.000,     0.000,   7,   1,1.06195,  -0.7291,   1
  5271,'CAUTEEN     ', 110.0000,1,     0.000,     0.000,   5,   1,1.05083,  -7.0432,   1
  5281,'TRALEE      ', 110.0000,1,     0.000,     0.000,   7,   1,1.05795,  -1.4668,   1
  5301,'THURLES     ', 110.0000,1,     0.000,     0.000,   5,   1,1.05613, -10.8785,   1
  5321,'THORNSBE    ', 110.0000,1,     0.000,     0.000,   8,   1,1.04235,  -8.9992,   2
  5341,'TONROE      ', 110.0000,1,     0.000,     0.000,   9,   1,1.02973, -11.6275,   2
  5361,'TRILLICK    ', 110.0000,1,     0.000,     0.000,   9,   1,1.00976, -16.1795,   2
  5381,'TIPPERAR    ', 110.0000,1,     0.000,     0.000,   5,   1,1.04738,  -8.3221,   1
  5441,'WATERFOR    ', 110.0000,1,     0.000,     0.000,   5,   1,1.05675,  -8.4118,   1
  5462,'WOODLAND    ', 220.0000,1,     0.000,     0.000,   2,   1,1.07352,  -4.7618,   1
  5464,'WOODLAND    ', 380.0000,1,     0.000,     0.000,   2,   1,1.01616,  -0.0379,   1
  5481,'WHITEGAT    ', 110.0000,1,     0.000,     0.000,   3,   1,1.03600,  -2.5543,   1
  5501,'WEXFORD     ', 110.0000,1,     0.000,     0.000,   6,   1,1.06543,  -9.3438,   1
  5521,'WOLFE TO    ', 110.0000,1,     0.000,     0.000,   1,   1,1.06387,  -9.1240,   2
 10204,'ARDNACRU    ',  38.0000,1,     0.000,     0.000,   4,   1,1.05145, -10.4339,   2
 10205,'ARDNACRU    ',  38.0000,1,     0.000,     0.000,   4,   1,1.05388, -10.6359,   2
 10210,'ARDNACRU    ', 110.0000,1,     0.000,     0.000,   4,   1,1.05000,  -5.6562,   1
 10212,'KNOCKAST    ',  20.0000,1,     0.000,     0.000,   4,   1,1.01379,  -9.8803,   1
 10213,'MIENVEE     ',  20.0000,1,     0.000,     0.000,   4,   1,1.01358, -11.1605,   1
 10261,'ARDNA_CA    ', 110.0000,1,     0.000,     0.000,   4,   1,1.05000,  -5.6562,   1
 10271,'ARDNG1      ',  10.5000,2,     0.000,     0.000,   4,   1,0.99700,  -1.5767,   3
 10272,'ARDNG2      ',  10.5000,2,     0.000,     0.000,   4,   1,0.99855,  -0.8372,   3
 10273,'ARDNG3      ',  10.5000,2,     0.000,     0.000,   4,   1,1.00000,  -5.6562,   3
 10274,'ARDNG4      ',  10.5000,2,     0.000,     0.000,   4,   1,0.99668,  -1.1190,   3
 10275,'KNOCKAST    ',   0.6900,2,     0.000,     0.000,   4,   1,1.01421,  -9.9890,   1
 10276,'MIENVEE     ',   0.6900,2,     0.000,     0.000,   4,   1,1.01396, -11.5240,   1
 10401,'AGHADA      ',  10.0000,1,     0.000,     0.000,   3,   1,0.99717,  -2.3005,   3
 10421,'AGHADA      ',  10.5000,1,     0.000,     0.000,   3,   1,1.03861,  -2.0007,   1
 10470,'AGH_CCGT    ',  21.0000,2,     0.000,     0.000,   3,   1,0.98527,   5.7500,   1
 10471,'AGH_G1      ',  20.0000,2,     0.000,     0.000,   3,   1,0.99048,   0.6851,   3
 10472,'AGH_G11     ',  10.5000,2,     0.000,     0.000,   3,   1,0.99102,   0.5399,   3
 10473,'AGH_G12     ',  10.5000,2,     0.000,     0.000,   3,   1,0.99102,   0.5399,   3
 10474,'AGH_G14     ',  10.5000,2,     0.000,     0.000,   3,   1,0.99048,   0.6851,   3
 10602,'ARIGNA      ',  20.0000,1,     0.000,     0.000,   9,   1,1.05258, -10.8256,   2
 10604,'ARIGNA      ',  38.0000,1,     0.000,     0.000,   9,   1,1.01237, -12.3423,   1
 10619,'ARIGNA_T    ', 110.0000,1,     0.000,     0.000,   9,   1,1.04684, -11.3446,   1
 10671,'CORRIEM     ',   0.6900,2,     0.000,     0.000,   9,   1,1.03341, -10.9744,   1
 10672,'KILRONAN    ',   0.6900,2,     0.000,     0.000,   9,   1,1.03685, -11.1195,   1
 10673,'SPIONKO     ',   0.6900,2,     0.000,     0.000,   9,   1,1.03362, -10.9754,   1
 10674,'SELTANAV    ',   0.4000,2,     0.000,     0.000,   9,   1,1.03414, -10.7922,   1
 10801,'AHANE       ',  11.0000,1,     0.000,     0.000,   7,   1,1.05151,  -6.3467,   2
 11201,'ARKLOW      ',  10.0000,1,     0.000,     0.000,   6,   1,1.05254, -10.7239,   1
 11202,'ARKLOW B    ',  20.0000,1,     0.000,     0.000,   6,   1,1.00342,  -8.8331,   1
 11204,'ARKLOW      ',  38.0000,2,     0.000,     0.000,   6,   1,1.06591,  -9.6094,   2
 11214,'ARKLOW      ',  38.0000,1,     0.000,     0.000,   6,   1,1.06396,  -9.9503,   1
 11221,'ARKL        ',  10.5000,1,     0.000,     0.000,   6,   1,1.06473,  -8.8417,   1
 11222,'ARKL        ',  10.5000,1,     0.000,     0.000,   6,   1,1.06646,  -8.8002,   1
 11224,'RAHEENLE    ',  38.0000,1,     0.000,     0.000,   6,   1,1.06492,  -9.9690,   1
 11234,'KILMAGIG    ',  38.0000,1,     0.000,     0.000,   6,   1,1.07222,  -9.9336,   1
 11242,'RAHEEN 2    ',  20.0000,1,     0.000,     0.000,   6,   1,1.06492, -10.9690,   1
 11244,'BALLYCUM    ',  38.0000,1,     0.000,     0.000,   6,   1,1.07519, -10.0015,   1
 11252,'RATHDRUM    ',  20.0000,1,     0.000,     0.000,   6,   1,0.99217, -10.9810,   1
 11254,'RATHDRUM    ',  38.0000,1,     0.000,     0.000,   6,   1,1.07315,  -9.9810,   1
 11271,'ARKLOWB     ',   3.3000,2,     0.000,     0.000,   6,   1,1.00377,  -8.7239,   1
 11302,'ATHEA       ',  20.0000,1,     0.000,     0.000,   7,   1,1.01016,  -0.0081,   4
 11370,'ATHEA_2     ',   0.6900,1,     0.000,     0.000,   7,   1,1.01016,  -1.0081,   1
 11371,'ATHEA       ',   0.6900,2,     0.000,     0.000,   7,   1,0.99093,  -0.0974,   4
 11404,'ATHLONE     ',  38.0000,1,     0.000,     0.000,   9,   1,1.04878, -15.1666,   2
 11461,'ATH_CAP     ', 110.0000,1,     0.000,     0.000,   9,   1,1.06309,  -9.3863,   1
 12001,'ARTANE      ',  10.0000,1,     0.000,     0.000,   1,   1,1.05959, -11.1768,   2
 12201,'ATHY        ',  10.0000,1,     0.000,     0.000,   8,   1,1.06095, -14.2488,   2